@<TRIPOS>MOLECULE
*****
 35 38 0 0 0
SMALL
GASTEIGER

@<TRIPOS>ATOM
      1 C          65.8820   93.1021   12.7635 C.ar    1  UNL1        0.0930
      2 C          66.4205   93.7646   13.9968 C.ar    1  UNL1        0.1067
      3 N          66.0394   92.9234   15.1788 N.ar    1  UNL1       -0.2252
      4 C          65.2653   91.7410   14.6760 C.ar    1  UNL1        0.1586
      5 N          64.6365   90.5781   15.3845 N.ar    1  UNL1       -0.3349
      6 C          63.9104   89.5256   14.6003 C.ar    1  UNL1        0.0945
      7 C          63.8131   89.6360   13.1076 C.ar    1  UNL1        0.1176
      8 N          64.4419   90.7990   12.3990 N.ar    1  UNL1       -0.2390
      9 C          65.1680   91.8515   13.1832 C.ar    1  UNL1        0.1210
     10 H          64.7003   90.5056   16.3643 H       1  UNL1        0.1675
     11 C          63.0870   88.5835   12.3234 C.ar    1  UNL1        0.1213
     12 N          63.2077   87.1007   12.5153 N.ar    1  UNL1       -0.1677
     13 N          62.3080   86.4297   11.5202 N.ar    1  UNL1       -0.2507
     14 C          61.6312   87.4978   10.7132 C.ar    1  UNL1        0.0816
     15 C          60.6388   87.4303    9.5905 C.ar    1  UNL1        0.0484
     16 C          60.1278   88.6938    8.9642 C.ar    1  UNL1        0.1416
     17 F          59.1353   88.6263    7.8414 F       1  UNL1       -0.2041
     18 C          60.6092   90.0250    9.4606 C.ar    1  UNL1        0.0298
     19 C          61.6017   90.0925   10.5833 C.ar    1  UNL1        0.0054
     20 C          62.1127   88.8289   11.2096 C.ar    1  UNL1        0.0383
     21 C          62.1184   84.9504   11.3601 C.3     1  UNL1        0.1293
     22 C          63.1095   83.9979   11.9605 C.3     1  UNL1        0.0516
     23 C          62.9219   83.5074   13.3656 C.3     1  UNL1        0.1530
     24 S          63.3983   84.3383   14.5199 S.O2    1  UNL1       -0.0082
     25 C          63.8746   85.1693   15.6743 C.3     1  UNL1        0.1760
     26 O          64.8206   84.0506   14.1401 O.2     1  UNL1       -0.1729
     27 O          61.9759   84.6261   14.8998 O.2     1  UNL1       -0.1729
     28 N          67.1468   94.5434   11.0104 N.am    1  UNL1       -0.3039
     29 C          66.0312   93.6024   11.3573 C.2     1  UNL1        0.2488
     30 O          65.0650   93.1619   10.2980 O.2     1  UNL1       -0.2700
     31 H          67.7810   94.8325   11.7056 H       1  UNL1        0.1496
     32 C          68.1027   93.8275    9.2572 C.3     1  UNL1        0.0196
     33 C          67.2960   95.0437    9.6041 C.3     1  UNL1        0.0572
     34 C          66.4894   96.2597    9.9512 C.3     1  UNL1        0.0196
     35 C          67.4452   95.5439    8.1980 C.3     1  UNL1        0.0196
@<TRIPOS>BOND
     1    32    33    1
     2    33    34    1
     3    33    35    1
     4    33    28    1
     5    28    29   am
     6    29    30    2
     7    29     1    1
     8     1     2   ar
     9     2     3   ar
    10     3     4   ar
    11     4     5   ar
    12     5     6   ar
    13     6     7   ar
    14     7    11    1
    15    11    12   ar
    16    12    13   ar
    17    13    21    1
    18    21    22    1
    19    22    23    1
    20    23    24    1
    21    24    25    1
    22    24    26    2
    23    24    27    2
    24    13    14   ar
    25    14    15   ar
    26    15    16   ar
    27    16    17    1
    28    16    18   ar
    29    18    19   ar
    30    19    20   ar
    31     7     8   ar
    32     8     9   ar
    33     9     1   ar
    34     9     4    1
    35    20    11   ar
    36    20    14   ar
    37    28    31    1
    38     5    10    1
@<TRIPOS>MOLECULE
*****
 35 38 0 0 0
SMALL
GASTEIGER

@<TRIPOS>ATOM
      1 C          65.8485   93.0261   12.7937 C.ar    1  UNL1        0.0930
      2 C          66.3800   93.6802   14.0344 C.ar    1  UNL1        0.1067
      3 N          65.9919   92.8312   15.2086 N.ar    1  UNL1       -0.2252
      4 C          65.2206   91.6524   14.6934 C.ar    1  UNL1        0.1586
      5 N          64.5874   90.4849   15.3906 N.ar    1  UNL1       -0.3349
      6 C          63.8657   89.4378   14.5952 C.ar    1  UNL1        0.0945
      7 C          63.7770   89.5582   13.1027 C.ar    1  UNL1        0.1176
      8 N          64.4101   90.7257   12.4055 N.ar    1  UNL1       -0.2390
      9 C          65.1319   91.7728   13.2009 C.ar    1  UNL1        0.1210
     10 H          64.6456   90.4058   16.3702 H       1  UNL1        0.1675
     11 C          63.0552   88.5111   12.3073 C.ar    1  UNL1        0.1213
     12 N          63.1840   87.0268   12.4817 N.ar    1  UNL1       -0.1677
     13 N          62.2864   86.3628   11.4801 N.ar    1  UNL1       -0.2507
     14 C          61.6027   87.4367   10.6867 C.ar    1  UNL1        0.0816
     15 C          60.6089   87.3771    9.5647 C.ar    1  UNL1        0.0484
     16 C          60.0903   88.6451    8.9540 C.ar    1  UNL1        0.1416
     17 F          59.0965   88.5855    7.8320 F       1  UNL1       -0.2041
     18 C          60.5655   89.9729    9.4652 C.ar    1  UNL1        0.0298
     19 C          61.5593   90.0325   10.5872 C.ar    1  UNL1        0.0054
     20 C          62.0779   88.7644   11.1979 C.ar    1  UNL1        0.0383
     21 C          62.1042   84.8844   11.3030 C.3     1  UNL1        0.1293
     22 C          63.1674   83.9363   11.7727 C.3     1  UNL1        0.0516
     23 C          63.0544   83.2918   13.1225 C.3     1  UNL1        0.1530
     24 S          62.7393   81.8293   13.2313 S.O2    1  UNL1       -0.0082
     25 C          62.4242   80.3668   13.3399 C.3     1  UNL1        0.1760
     26 O          62.4352   82.0032   14.6897 O.2     1  UNL1       -0.1729
     27 O          63.0434   81.6554   11.7727 O.2     1  UNL1       -0.1729
     28 N          67.1615   94.4263   11.0427 N.am    1  UNL1       -0.3039
     29 C          66.0059   93.5357   11.3917 C.2     1  UNL1        0.2488
     30 O          65.0079   93.1549   10.3387 O.2     1  UNL1       -0.2700
     31 H          67.8166   94.6762   11.7338 H       1  UNL1        0.1496
     32 C          66.5496   96.1715   10.0036 C.3     1  UNL1        0.0196
     33 C          67.3189   94.9359    9.6407 C.3     1  UNL1        0.0572
     34 C          68.0881   93.7003    9.2779 C.3     1  UNL1        0.0196
     35 C          67.4762   95.4455    8.2388 C.3     1  UNL1        0.0196
@<TRIPOS>BOND
     1    32    33    1
     2    33    34    1
     3    33    35    1
     4    33    28    1
     5    28    29   am
     6    29    30    2
     7    29     1    1
     8     1     2   ar
     9     2     3   ar
    10     3     4   ar
    11     4     5   ar
    12     5     6   ar
    13     6     7   ar
    14     7    11    1
    15    11    12   ar
    16    12    13   ar
    17    13    21    1
    18    21    22    1
    19    22    23    1
    20    23    24    1
    21    24    25    1
    22    24    26    2
    23    24    27    2
    24    13    14   ar
    25    14    15   ar
    26    15    16   ar
    27    16    17    1
    28    16    18   ar
    29    18    19   ar
    30    19    20   ar
    31     7     8   ar
    32     8     9   ar
    33     9     1   ar
    34     9     4    1
    35    20    11   ar
    36    20    14   ar
    37    28    31    1
    38     5    10    1
@<TRIPOS>MOLECULE
*****
 35 38 0 0 0
SMALL
GASTEIGER

@<TRIPOS>ATOM
      1 C          63.9296   85.2742   14.4222 C.ar    1  UNL1        0.0930
      2 C          64.6513   85.9515   15.5493 C.ar    1  UNL1        0.1067
      3 N          64.6563   87.4265   15.2765 N.ar    1  UNL1       -0.2252
      4 C          63.9378   87.6607   13.9808 C.ar    1  UNL1        0.1586
      5 N          63.6345   88.9134   13.2135 N.ar    1  UNL1       -0.3349
      6 C          62.8820   88.8359   11.9183 C.ar    1  UNL1        0.0945
      7 C          62.4329   87.5056   11.3903 C.ar    1  UNL1        0.1176
      8 N          62.7362   86.2530   12.1575 N.ar    1  UNL1       -0.2390
      9 C          63.4887   86.3305   13.4528 C.ar    1  UNL1        0.1210
     10 H          63.9293   89.7865   13.5601 H       1  UNL1        0.1675
     11 C          61.6803   87.4282   10.0949 C.ar    1  UNL1        0.1213
     12 N          60.5870   88.3555    9.6536 N.ar    1  UNL1       -0.1677
     13 N          60.1200   87.9102    8.2995 N.ar    1  UNL1       -0.2507
     14 C          60.9247   86.7077    7.9039 C.ar    1  UNL1        0.0816
     15 C          60.9040   85.8455    6.6767 C.ar    1  UNL1        0.0484
     16 C          61.8475   84.6855    6.5591 C.ar    1  UNL1        0.1416
     17 F          61.8267   83.8232    5.3317 F       1  UNL1       -0.2041
     18 C          62.8119   84.3875    7.6687 C.ar    1  UNL1        0.0298
     19 C          62.8326   85.2497    8.8960 C.ar    1  UNL1        0.0054
     20 C          61.8890   86.4098    9.0136 C.ar    1  UNL1        0.0383
     21 C          59.0382   88.5544    7.4842 C.3     1  UNL1        0.1293
     22 C          59.3967   89.4227    6.3148 C.3     1  UNL1        0.0516
     23 C          58.4460   90.4862    5.8510 C.3     1  UNL1        0.1530
     24 S          58.9192   91.5589    4.9154 S.O2    1  UNL1       -0.0082
     25 C          59.3922   92.6317    3.9798 C.3     1  UNL1        0.1760
     26 O          60.3196   91.0317    5.0190 O.2     1  UNL1       -0.1729
     27 O          57.5186   92.0861    4.8117 O.2     1  UNL1       -0.1729
     28 N          62.7948   83.2804   13.2026 N.am    1  UNL1       -0.3039
     29 C          63.6908   83.7994   14.2880 C.2     1  UNL1        0.2488
     30 O          64.3479   82.8436   15.2390 O.2     1  UNL1       -0.2700
     31 H          62.3635   83.9077   12.5783 H       1  UNL1        0.1496
     32 C          61.6236   81.8498   14.2426 C.3     1  UNL1        0.0196
     33 C          62.5560   81.8056   13.0684 C.3     1  UNL1        0.0572
     34 C          63.4884   81.7615   11.8942 C.3     1  UNL1        0.0196
     35 C          62.3172   80.3309   12.9342 C.3     1  UNL1        0.0196
@<TRIPOS>BOND
     1    32    33    1
     2    33    34    1
     3    33    35    1
     4    33    28    1
     5    28    29   am
     6    29    30    2
     7    29     1    1
     8     1     2   ar
     9     2     3   ar
    10     3     4   ar
    11     4     5   ar
    12     5     6   ar
    13     6     7   ar
    14     7    11    1
    15    11    12   ar
    16    12    13   ar
    17    13    21    1
    18    21    22    1
    19    22    23    1
    20    23    24    1
    21    24    25    1
    22    24    26    2
    23    24    27    2
    24    13    14   ar
    25    14    15   ar
    26    15    16   ar
    27    16    17    1
    28    16    18   ar
    29    18    19   ar
    30    19    20   ar
    31     7     8   ar
    32     8     9   ar
    33     9     1   ar
    34     9     4    1
    35    20    11   ar
    36    20    14   ar
    37    28    31    1
    38     5    10    1
@<TRIPOS>MOLECULE
*****
 35 38 0 0 0
SMALL
GASTEIGER

@<TRIPOS>ATOM
      1 C          61.8056   86.7277   11.1130 C.ar    1  UNL1        0.0930
      2 C          60.6042   86.3013   10.3225 C.ar    1  UNL1        0.1067
      3 N          60.1025   87.4932    9.5625 N.ar    1  UNL1       -0.2252
      4 C          60.9938   88.6563    9.8833 C.ar    1  UNL1        0.1586
      5 N          60.9830   90.0850    9.4267 N.ar    1  UNL1       -0.3349
      6 C          62.0247   91.0406    9.9283 C.ar    1  UNL1        0.0945
      7 C          63.0772   90.5675   10.8865 C.ar    1  UNL1        0.1176
      8 N          63.0881   89.1387   11.3432 N.ar    1  UNL1       -0.2390
      9 C          62.0464   88.1831   10.8416 C.ar    1  UNL1        0.1210
     10 H          60.2921   90.3956    8.7977 H       1  UNL1        0.1675
     11 C          64.1190   91.5231   11.3882 C.ar    1  UNL1        0.1213
     12 N          64.8691   92.5239   10.5601 N.ar    1  UNL1       -0.1677
     13 N          65.8072   93.2651   11.4660 N.ar    1  UNL1       -0.2507
     14 C          65.6367   92.7224   12.8540 C.ar    1  UNL1        0.0816
     15 C          66.2968   93.0694   14.1555 C.ar    1  UNL1        0.0484
     16 C          65.9135   92.3399   15.4088 C.ar    1  UNL1        0.1416
     17 F          66.5736   92.6870   16.7103 F       1  UNL1       -0.2041
     18 C          64.8701   91.2633   15.3607 C.ar    1  UNL1        0.0298
     19 C          64.2100   90.9163   14.0592 C.ar    1  UNL1        0.0054
     20 C          64.5934   91.6458   12.8059 C.ar    1  UNL1        0.0383
     21 C          66.7501   94.3572   11.0560 C.3     1  UNL1        0.1293
     22 C          66.4138   95.7888   11.3520 C.3     1  UNL1        0.0516
     23 C          66.7255   96.8560   10.3451 C.3     1  UNL1        0.1530
     24 S          66.2625   96.7066    8.9262 S.O2    1  UNL1       -0.0082
     25 C          65.7995   96.5573    7.5072 C.3     1  UNL1        0.1760
     26 O          64.8384   96.8448    9.3763 O.2     1  UNL1       -0.1729
     27 O          67.6867   96.5685    8.4760 O.2     1  UNL1       -0.1729
     28 N          62.5898   84.3621   11.8474 N.am    1  UNL1       -0.3039
     29 C          62.6227   85.8523   12.0163 C.2     1  UNL1        0.2488
     30 O          63.4727   86.4669   13.0885 O.2     1  UNL1       -0.2700
     31 H          62.0319   83.9587   11.1437 H       1  UNL1        0.1496
     32 C          64.4505   83.3571   11.6810 C.3     1  UNL1        0.0196
     33 C          63.4070   83.4868   12.7508 C.3     1  UNL1        0.0572
     34 C          62.3634   83.6165   13.8205 C.3     1  UNL1        0.0196
     35 C          64.2241   82.6114   13.6541 C.3     1  UNL1        0.0196
@<TRIPOS>BOND
     1    32    33    1
     2    33    34    1
     3    33    35    1
     4    33    28    1
     5    28    29   am
     6    29    30    2
     7    29     1    1
     8     1     2   ar
     9     2     3   ar
    10     3     4   ar
    11     4     5   ar
    12     5     6   ar
    13     6     7   ar
    14     7    11    1
    15    11    12   ar
    16    12    13   ar
    17    13    21    1
    18    21    22    1
    19    22    23    1
    20    23    24    1
    21    24    25    1
    22    24    26    2
    23    24    27    2
    24    13    14   ar
    25    14    15   ar
    26    15    16   ar
    27    16    17    1
    28    16    18   ar
    29    18    19   ar
    30    19    20   ar
    31     7     8   ar
    32     8     9   ar
    33     9     1   ar
    34     9     4    1
    35    20    11   ar
    36    20    14   ar
    37    28    31    1
    38     5    10    1
@<TRIPOS>MOLECULE
*****
 35 38 0 0 0
SMALL
GASTEIGER

@<TRIPOS>ATOM
      1 C          63.4316   85.2833   15.2563 C.ar    1  UNL1        0.0930
      2 C          62.7541   84.6615   16.4413 C.ar    1  UNL1        0.1067
      3 N          62.4210   85.7558   17.4116 N.ar    1  UNL1       -0.2252
      4 C          62.8926   87.0539   16.8263 C.ar    1  UNL1        0.1586
      5 N          62.8340   88.4640   17.3342 N.ar    1  UNL1       -0.3349
      6 C          63.4001   89.5821   16.5100 C.ar    1  UNL1        0.0945
      7 C          64.0247   89.2901   15.1778 C.ar    1  UNL1        0.1176
      8 N          64.0833   87.8799   14.6700 N.ar    1  UNL1       -0.2390
      9 C          63.5173   86.7618   15.4942 C.ar    1  UNL1        0.1210
     10 H          62.4241   88.6557   18.2085 H       1  UNL1        0.1675
     11 C          64.5908   90.4083   14.3536 C.ar    1  UNL1        0.1213
     12 N          64.2537   90.7070   12.9228 N.ar    1  UNL1       -0.1677
     13 N          65.0479   91.9073   12.5003 N.ar    1  UNL1       -0.2507
     14 C          65.8758   92.3505   13.6701 C.ar    1  UNL1        0.0816
     15 C          66.8504   93.4779   13.8403 C.ar    1  UNL1        0.0484
     16 C          67.5425   93.6789   15.1557 C.ar    1  UNL1        0.1416
     17 F          68.5172   94.8064   15.3259 F       1  UNL1       -0.2041
     18 C          67.2601   92.7524   16.3011 C.ar    1  UNL1        0.0298
     19 C          66.2854   91.6249   16.1310 C.ar    1  UNL1        0.0054
     20 C          65.5933   91.4240   14.8154 C.ar    1  UNL1        0.0383
     21 C          65.0192   92.5515   11.1460 C.3     1  UNL1        0.1293
     22 C          66.2815   93.0998   10.5494 C.3     1  UNL1        0.0516
     23 C          66.5886   94.5639   10.6594 C.3     1  UNL1        0.1530
     24 S          67.0498   95.3261    9.4526 S.O2    1  UNL1       -0.0082
     25 C          67.5110   96.0884    8.2459 C.3     1  UNL1        0.1760
     26 O          65.7709   96.1099    9.4590 O.2     1  UNL1       -0.1729
     27 O          68.3287   94.5423    9.4463 O.2     1  UNL1       -0.1729
     28 N          62.9648   83.9081   13.1019 N.am    1  UNL1       -0.3039
     29 C          63.9352   84.5545   14.0458 C.2     1  UNL1        0.2488
     30 O          65.4089   84.4720   13.7791 O.2     1  UNL1       -0.2700
     31 H          61.9975   83.9622   13.2769 H       1  UNL1        0.1496
     32 C          63.7951   81.9891   12.7440 C.3     1  UNL1        0.0196
     33 C          63.4684   83.1793   11.8914 C.3     1  UNL1        0.0572
     34 C          63.1417   84.3694   11.0389 C.3     1  UNL1        0.0196
     35 C          63.9719   82.4505   10.6810 C.3     1  UNL1        0.0196
@<TRIPOS>BOND
     1    32    33    1
     2    33    34    1
     3    33    35    1
     4    33    28    1
     5    28    29   am
     6    29    30    2
     7    29     1    1
     8     1     2   ar
     9     2     3   ar
    10     3     4   ar
    11     4     5   ar
    12     5     6   ar
    13     6     7   ar
    14     7    11    1
    15    11    12   ar
    16    12    13   ar
    17    13    21    1
    18    21    22    1
    19    22    23    1
    20    23    24    1
    21    24    25    1
    22    24    26    2
    23    24    27    2
    24    13    14   ar
    25    14    15   ar
    26    15    16   ar
    27    16    17    1
    28    16    18   ar
    29    18    19   ar
    30    19    20   ar
    31     7     8   ar
    32     8     9   ar
    33     9     1   ar
    34     9     4    1
    35    20    11   ar
    36    20    14   ar
    37    28    31    1
    38     5    10    1
@<TRIPOS>MOLECULE
*****
 35 38 0 0 0
SMALL
GASTEIGER

@<TRIPOS>ATOM
      1 C          63.3446   85.2198   15.7823 C.ar    1  UNL1        0.0930
      2 C          62.8590   84.7157   17.1090 C.ar    1  UNL1        0.1067
      3 N          62.6442   85.8998   18.0043 N.ar    1  UNL1       -0.2252
      4 C          62.9971   87.1357   17.2311 C.ar    1  UNL1        0.1586
      5 N          62.9803   88.5895   17.6001 N.ar    1  UNL1       -0.3349
      6 C          63.3963   89.6230   16.5957 C.ar    1  UNL1        0.0945
      7 C          63.8292   89.2027   15.2224 C.ar    1  UNL1        0.1176
      8 N          63.8461   87.7490   14.8535 N.ar    1  UNL1       -0.2390
      9 C          63.4300   86.7155   15.8578 C.ar    1  UNL1        0.1210
     10 H          62.6961   88.8654   18.5014 H       1  UNL1        0.1675
     11 C          64.2452   90.2363   14.2180 C.ar    1  UNL1        0.1213
     12 N          65.2690   91.3116   14.4319 N.ar    1  UNL1       -0.1677
     13 N          65.3671   92.1159   13.1696 N.ar    1  UNL1       -0.2507
     14 C          64.4038   91.5378   12.1756 C.ar    1  UNL1        0.0816
     15 C          64.0685   91.9190   10.7642 C.ar    1  UNL1        0.0484
     16 C          63.0399   91.1386   10.0007 C.ar    1  UNL1        0.1416
     17 F          62.7045   91.5199    8.5892 F       1  UNL1       -0.2041
     18 C          62.3465   89.9770   10.6487 C.ar    1  UNL1        0.0298
     19 C          62.6818   89.5957   12.0602 C.ar    1  UNL1        0.0054
     20 C          63.7105   90.3761   12.8236 C.ar    1  UNL1        0.0383
     21 C          66.2698   93.2919   12.9413 C.3     1  UNL1        0.1293
     22 C          66.6464   93.6883   11.5445 C.3     1  UNL1        0.0516
     23 C          66.4151   95.0943   11.0758 C.3     1  UNL1        0.1530
     24 S          66.7966   95.4921    9.6808 S.O2    1  UNL1       -0.0082
     25 C          67.1783   95.8898    8.2857 C.3     1  UNL1        0.1760
     26 O          65.6110   96.4087    9.6178 O.2     1  UNL1       -0.1729
     27 O          67.9824   94.5754    9.7437 O.2     1  UNL1       -0.1729
     28 N          62.5927   83.7173   13.8005 N.am    1  UNL1       -0.3039
     29 C          63.6851   84.3763   14.5896 C.2     1  UNL1        0.2488
     30 O          65.1179   84.1918   14.1859 O.2     1  UNL1       -0.2700
     31 H          61.6523   83.8384   14.0655 H       1  UNL1        0.1496
     32 C          62.8348   84.0826   11.7250 C.3     1  UNL1        0.0196
     33 C          62.9332   82.8739   12.6078 C.3     1  UNL1        0.0572
     34 C          63.0317   81.6652   13.4906 C.3     1  UNL1        0.0196
     35 C          63.2737   82.0305   11.4151 C.3     1  UNL1        0.0196
@<TRIPOS>BOND
     1    32    33    1
     2    33    34    1
     3    33    35    1
     4    33    28    1
     5    28    29   am
     6    29    30    2
     7    29     1    1
     8     1     2   ar
     9     2     3   ar
    10     3     4   ar
    11     4     5   ar
    12     5     6   ar
    13     6     7   ar
    14     7    11    1
    15    11    12   ar
    16    12    13   ar
    17    13    21    1
    18    21    22    1
    19    22    23    1
    20    23    24    1
    21    24    25    1
    22    24    26    2
    23    24    27    2
    24    13    14   ar
    25    14    15   ar
    26    15    16   ar
    27    16    17    1
    28    16    18   ar
    29    18    19   ar
    30    19    20   ar
    31     7     8   ar
    32     8     9   ar
    33     9     1   ar
    34     9     4    1
    35    20    11   ar
    36    20    14   ar
    37    28    31    1
    38     5    10    1
@<TRIPOS>MOLECULE
*****
 35 38 0 0 0
SMALL
GASTEIGER

@<TRIPOS>ATOM
      1 C          66.0404   93.1758   12.7909 C.ar    1  UNL1        0.0930
      2 C          66.4789   94.0933   13.8936 C.ar    1  UNL1        0.1067
      3 N          66.1195   93.4516   15.2009 N.ar    1  UNL1       -0.2252
      4 C          65.4589   92.1375   14.9062 C.ar    1  UNL1        0.1586
      5 N          64.8956   91.0742   15.8017 N.ar    1  UNL1       -0.3349
      6 C          64.2834   89.8404   15.2077 C.ar    1  UNL1        0.0945
      7 C          64.2345   89.6699   13.7182 C.ar    1  UNL1        0.1176
      8 N          64.7978   90.7333   12.8227 N.ar    1  UNL1       -0.2390
      9 C          65.4100   91.9671   13.4167 C.ar    1  UNL1        0.1210
     10 H          64.9277   91.1861   16.7793 H       1  UNL1        0.1675
     11 C          63.6222   88.4360   13.1242 C.ar    1  UNL1        0.1213
     12 N          62.7314   88.3867   11.9184 N.ar    1  UNL1       -0.1677
     13 N          62.3519   86.9551   11.6806 N.ar    1  UNL1       -0.2507
     14 C          63.0082   86.1197   12.7396 C.ar    1  UNL1        0.0816
     15 C          62.9924   84.6438   13.0068 C.ar    1  UNL1        0.0484
     16 C          63.7615   84.0831   14.1660 C.ar    1  UNL1        0.1416
     17 F          63.7457   82.6071   14.4332 F       1  UNL1       -0.2041
     18 C          64.5467   84.9984   15.0582 C.ar    1  UNL1        0.0298
     19 C          64.5625   86.4743   14.7910 C.ar    1  UNL1        0.0054
     20 C          63.7933   87.0349   13.6317 C.ar    1  UNL1        0.0383
     21 C          61.4708   86.4480   10.5777 C.3     1  UNL1        0.1293
     22 C          61.9865   86.3952    9.1701 C.3     1  UNL1        0.0516
     23 C          61.0787   85.9701    8.0543 C.3     1  UNL1        0.1530
     24 S          61.5854   85.0481    6.9851 S.O2    1  UNL1       -0.0082
     25 C          62.0920   84.1260    5.9159 C.3     1  UNL1        0.1760
     26 O          62.9828   85.2138    7.5044 O.2     1  UNL1       -0.1729
     27 O          60.1879   84.8823    6.4658 O.2     1  UNL1       -0.1729
     28 N          67.2703   94.3578   10.8312 N.am    1  UNL1       -0.3039
     29 C          66.2036   93.4235   11.3205 C.2     1  UNL1        0.2488
     30 O          65.3003   92.7370   10.3394 O.2     1  UNL1       -0.2700
     31 H          67.8632   94.8085   11.4751 H       1  UNL1        0.1496
     32 C          68.3261   93.4044    9.2576 C.3     1  UNL1        0.0196
     33 C          67.4335   94.6055    9.3608 C.3     1  UNL1        0.0572
     34 C          66.5409   95.8066    9.4641 C.3     1  UNL1        0.0196
     35 C          67.5967   94.8532    7.8905 C.3     1  UNL1        0.0196
@<TRIPOS>BOND
     1    32    33    1
     2    33    34    1
     3    33    35    1
     4    33    28    1
     5    28    29   am
     6    29    30    2
     7    29     1    1
     8     1     2   ar
     9     2     3   ar
    10     3     4   ar
    11     4     5   ar
    12     5     6   ar
    13     6     7   ar
    14     7    11    1
    15    11    12   ar
    16    12    13   ar
    17    13    21    1
    18    21    22    1
    19    22    23    1
    20    23    24    1
    21    24    25    1
    22    24    26    2
    23    24    27    2
    24    13    14   ar
    25    14    15   ar
    26    15    16   ar
    27    16    17    1
    28    16    18   ar
    29    18    19   ar
    30    19    20   ar
    31     7     8   ar
    32     8     9   ar
    33     9     1   ar
    34     9     4    1
    35    20    11   ar
    36    20    14   ar
    37    28    31    1
    38     5    10    1
@<TRIPOS>MOLECULE
*****
 35 38 0 0 0
SMALL
GASTEIGER

@<TRIPOS>ATOM
      1 C          61.7021   85.9844    9.8262 C.ar    1  UNL1        0.0930
      2 C          60.6129   85.7842    8.8145 C.ar    1  UNL1        0.1067
      3 N          60.0214   87.1260    8.4986 N.ar    1  UNL1       -0.2252
      4 C          60.7451   88.1555    9.3150 C.ar    1  UNL1        0.1586
      5 N          60.5925   89.6441    9.4173 N.ar    1  UNL1       -0.3349
      6 C          61.4785   90.4272   10.3401 C.ar    1  UNL1        0.0945
      7 C          62.5172   89.7217   11.1607 C.ar    1  UNL1        0.1176
      8 N          62.6699   88.2330   11.0584 N.ar    1  UNL1       -0.2390
      9 C          61.7838   87.4499   10.1356 C.ar    1  UNL1        0.1210
     10 H          59.9107   90.1072    8.8788 H       1  UNL1        0.1675
     11 C          63.4033   90.5049   12.0835 C.ar    1  UNL1        0.1213
     12 N          63.5706   90.2697   13.5555 N.ar    1  UNL1       -0.1677
     13 N          64.5483   91.2801   14.0781 N.ar    1  UNL1       -0.2507
     14 C          64.9852   92.1398   12.9291 C.ar    1  UNL1        0.0816
     15 C          65.9359   93.2970   12.8461 C.ar    1  UNL1        0.0484
     16 C          66.1791   93.9750   11.5304 C.ar    1  UNL1        0.1416
     17 F          67.1299   95.1323   11.4474 F       1  UNL1       -0.2041
     18 C          65.4714   93.4958   10.2976 C.ar    1  UNL1        0.0298
     19 C          64.5206   92.3386   10.3806 C.ar    1  UNL1        0.0054
     20 C          64.2775   91.6606   11.6964 C.ar    1  UNL1        0.0383
     21 C          65.0083   91.4084   15.5001 C.3     1  UNL1        0.1293
     22 C          65.6375   92.6855   15.9724 C.3     1  UNL1        0.0516
     23 C          67.0511   92.6844   16.4741 C.3     1  UNL1        0.1530
     24 S          68.1923   92.6680   15.5008 S.O2    1  UNL1       -0.0082
     25 C          69.3335   92.6514   14.5275 C.3     1  UNL1        0.1760
     26 O          68.5559   94.0663   15.9035 O.2     1  UNL1       -0.1729
     27 O          67.8287   91.2695   15.0981 O.2     1  UNL1       -0.1729
     28 N          62.3281   84.4639   11.8378 N.am    1  UNL1       -0.3039
     29 C          62.5591   84.9081   10.4237 C.2     1  UNL1        0.2488
     30 O          63.6470   84.2759    9.6073 O.2     1  UNL1       -0.2700
     31 H          61.6141   84.8788   12.3737 H       1  UNL1        0.1496
     32 C          62.3979   82.3487   11.6929 C.3     1  UNL1        0.0196
     33 C          63.1852   83.3876   12.4353 C.3     1  UNL1        0.0572
     34 C          63.9724   84.4264   13.1776 C.3     1  UNL1        0.0196
     35 C          64.0421   82.3113   13.0327 C.3     1  UNL1        0.0196
@<TRIPOS>BOND
     1    32    33    1
     2    33    34    1
     3    33    35    1
     4    33    28    1
     5    28    29   am
     6    29    30    2
     7    29     1    1
     8     1     2   ar
     9     2     3   ar
    10     3     4   ar
    11     4     5   ar
    12     5     6   ar
    13     6     7   ar
    14     7    11    1
    15    11    12   ar
    16    12    13   ar
    17    13    21    1
    18    21    22    1
    19    22    23    1
    20    23    24    1
    21    24    25    1
    22    24    26    2
    23    24    27    2
    24    13    14   ar
    25    14    15   ar
    26    15    16   ar
    27    16    17    1
    28    16    18   ar
    29    18    19   ar
    30    19    20   ar
    31     7     8   ar
    32     8     9   ar
    33     9     1   ar
    34     9     4    1
    35    20    11   ar
    36    20    14   ar
    37    28    31    1
    38     5    10    1
@<TRIPOS>MOLECULE
*****
 35 38 0 0 0
SMALL
GASTEIGER

@<TRIPOS>ATOM
      1 C          63.7150   83.1612   13.4482 C.ar    1  UNL1        0.0930
      2 C          64.1816   81.7703   13.1355 C.ar    1  UNL1        0.1067
      3 N          64.1626   81.5991   11.6454 N.ar    1  UNL1       -0.2252
      4 C          63.6842   82.8841   11.0372 C.ar    1  UNL1        0.1586
      5 N          63.4648   83.2998    9.6128 N.ar    1  UNL1       -0.3349
      6 C          62.9688   84.6810    9.3026 C.ar    1  UNL1        0.0945
      7 C          62.6922   85.6464   10.4168 C.ar    1  UNL1        0.1176
      8 N          62.9116   85.2307   11.8412 N.ar    1  UNL1       -0.2390
      9 C          63.4076   83.8496   12.1514 C.ar    1  UNL1        0.1210
     10 H          63.6463   82.6662    8.8815 H       1  UNL1        0.1675
     11 C          62.1961   87.0277   10.1065 C.ar    1  UNL1        0.1213
     12 N          62.6805   88.3004   10.7354 N.ar    1  UNL1       -0.1677
     13 N          61.9124   89.4380   10.1305 N.ar    1  UNL1       -0.2507
     14 C          60.9532   88.8683    9.1277 C.ar    1  UNL1        0.0816
     15 C          59.9428   89.5135    8.2261 C.ar    1  UNL1        0.0484
     16 C          59.1079   88.6691    7.3098 C.ar    1  UNL1        0.1416
     17 F          58.0974   89.3144    6.4082 F       1  UNL1       -0.2041
     18 C          59.2832   87.1794    7.2950 C.ar    1  UNL1        0.0298
     19 C          60.2936   86.5342    8.1965 C.ar    1  UNL1        0.0054
     20 C          61.1286   87.3786    9.1129 C.ar    1  UNL1        0.0383
     21 C          62.0748   90.8902   10.4689 C.3     1  UNL1        0.1293
     22 C          63.4470   91.4866   10.5750 C.3     1  UNL1        0.0516
     23 C          64.1801   91.4536   11.8833 C.3     1  UNL1        0.1530
     24 S          65.2401   92.4740   12.1749 S.O2    1  UNL1       -0.0082
     25 C          66.3002   93.4943   12.4668 C.3     1  UNL1        0.1760
     26 O          65.4375   92.6896   10.7038 O.2     1  UNL1       -0.1729
     27 O          65.0428   92.2583   13.6463 O.2     1  UNL1       -0.1729
     28 N          63.0444   85.1508   14.9785 N.am    1  UNL1       -0.3039
     29 C          63.5796   83.7588   14.8173 C.2     1  UNL1        0.2488
     30 O          63.9794   82.9645   16.0253 O.2     1  UNL1       -0.2700
     31 H          62.7820   85.6722   14.1857 H       1  UNL1        0.1496
     32 C          61.5145   85.2045   16.4470 C.3     1  UNL1        0.0196
     33 C          62.9089   85.7484   16.3476 C.3     1  UNL1        0.0572
     34 C          64.3033   86.2923   16.2481 C.3     1  UNL1        0.0196
     35 C          62.7735   86.3460   17.7167 C.3     1  UNL1        0.0196
@<TRIPOS>BOND
     1    32    33    1
     2    33    34    1
     3    33    35    1
     4    33    28    1
     5    28    29   am
     6    29    30    2
     7    29     1    1
     8     1     2   ar
     9     2     3   ar
    10     3     4   ar
    11     4     5   ar
    12     5     6   ar
    13     6     7   ar
    14     7    11    1
    15    11    12   ar
    16    12    13   ar
    17    13    21    1
    18    21    22    1
    19    22    23    1
    20    23    24    1
    21    24    25    1
    22    24    26    2
    23    24    27    2
    24    13    14   ar
    25    14    15   ar
    26    15    16   ar
    27    16    17    1
    28    16    18   ar
    29    18    19   ar
    30    19    20   ar
    31     7     8   ar
    32     8     9   ar
    33     9     1   ar
    34     9     4    1
    35    20    11   ar
    36    20    14   ar
    37    28    31    1
    38     5    10    1
