@<TRIPOS>MOLECULE
*****
 31 34 0 0 0
SMALL
GASTEIGER

@<TRIPOS>ATOM
      1 C          62.2555   86.8277   11.3185 C.ar    1  UNL1        0.0033
      2 C          60.9278   87.3186   10.8223 C.ar    1  UNL1        0.0024
      3 C          60.5578   88.7643   10.9752 C.ar    1  UNL1        0.0296
      4 C          61.5156   89.7189   11.6243 C.ar    1  UNL1        0.1402
      5 F          61.1456   91.1645   11.7773 F       1  UNL1       -0.2042
      6 C          62.8433   89.2280   12.1205 C.ar    1  UNL1        0.0304
      7 C          63.2133   87.7824   11.9676 C.ar    1  UNL1        0.0024
      8 N          62.8935   82.3821   13.5573 N.ar    1  UNL1       -0.2931
      9 C          62.4643   83.4271   14.5441 C.ar    1  UNL1        0.1797
     10 N          62.2948   84.7211   13.8047 N.ar    1  UNL1       -0.2222
     11 C          62.6193   84.4758   12.3608 C.ar    1  UNL1        0.1203
     12 C          62.6256   85.3821   11.1656 C.ar    1  UNL1        0.0417
     13 C          63.0018   84.8428    9.8174 C.ar    1  UNL1        0.1238
     14 N          63.3718   83.3972    9.6646 N.ar    1  UNL1       -0.1449
     15 N          63.3655   82.4910   10.8598 N.ar    1  UNL1       -0.1285
     16 C          62.9892   83.0303   12.2080 C.ar    1  UNL1        0.1843
     17 C          62.3089   79.8654   13.2848 C.3     1  UNL1        0.0266
     18 C          63.1771   80.9419   13.8656 C.3     1  UNL1        0.1091
     19 C          63.8010   90.1827   12.7696 C.ar    1  UNL1        0.0362
     20 C          64.4154   91.2907   11.9666 C.ar    1  UNL1        0.0044
     21 C          65.3732   92.2454   12.6157 C.ar    1  UNL1        0.0185
     22 C          65.7165   92.0920   14.0679 C.ar    1  UNL1        0.1087
     23 C          65.1021   90.9840   14.8708 C.ar    1  UNL1        0.0552
     24 C          64.1444   90.0293   14.2217 C.ar    1  UNL1        0.1400
     25 S          66.6742   93.0467   14.7170 S.O2    1  UNL1        0.0088
     26 O          67.1719   91.9443   15.6041 O.2     1  UNL1       -0.1686
     27 O          66.1766   94.1491   13.8299 O.2     1  UNL1       -0.1686
     28 C          67.6319   94.0014   15.3661 C.3     1  UNL1        0.1560
     29 C          68.9745   93.5183   15.8289 C.3     1  UNL1        0.0276
     30 O          63.5300   88.9213   15.0248 O.3     1  UNL1       -0.4714
     31 C          63.1658   89.1494   16.4618 C.3     1  UNL1        0.2525
@<TRIPOS>BOND
     1    17    18    1
     2    18     8    1
     3     8     9   ar
     4     9    10   ar
     5    10    11   ar
     6    11    12   ar
     7    12     1    1
     8     1     2   ar
     9     2     3   ar
    10     3     4   ar
    11     4     5    1
    12     4     6   ar
    13     6    19    1
    14    19    20   ar
    15    20    21   ar
    16    21    22   ar
    17    22    25    1
    18    25    26    2
    19    25    27    2
    20    25    28    1
    21    28    29    1
    22    22    23   ar
    23    23    24   ar
    24    24    30    1
    25    30    31    1
    26     6     7   ar
    27    12    13   ar
    28    13    14   ar
    29    14    15   ar
    30    15    16   ar
    31    16     8   ar
    32    16    11   ar
    33     7     1   ar
    34    24    19   ar
@<TRIPOS>MOLECULE
*****
 31 34 0 0 0
SMALL
GASTEIGER

@<TRIPOS>ATOM
      1 C          64.7397   90.5755   15.0178 C.ar    1  UNL1        0.0033
      2 C          63.9532   90.9463   16.2400 C.ar    1  UNL1        0.0024
      3 C          63.1404   89.9064   16.9528 C.ar    1  UNL1        0.0296
      4 C          63.1141   88.4958   16.4434 C.ar    1  UNL1        0.1402
      5 F          62.3013   87.4560   17.1562 F       1  UNL1       -0.2042
      6 C          63.9007   88.1251   15.2211 C.ar    1  UNL1        0.0304
      7 C          64.7134   89.1649   14.5083 C.ar    1  UNL1        0.0024
      8 N          65.5495   93.0997   10.7568 N.ar    1  UNL1       -0.2931
      9 C          64.4153   92.1301   10.6030 C.ar    1  UNL1        0.1797
     10 N          64.2343   91.4172   11.9102 N.ar    1  UNL1       -0.2222
     11 C          65.2567   91.9462   12.8721 C.ar    1  UNL1        0.1203
     12 C          65.5525   91.6154   14.3049 C.ar    1  UNL1        0.0417
     13 C          66.6611   92.3243   15.0249 C.ar    1  UNL1        0.1238
     14 N          67.4739   93.3641   14.3120 N.ar    1  UNL1       -0.1449
     15 N          67.1781   93.6949   12.8792 N.ar    1  UNL1       -0.1285
     16 C          66.0695   92.9860   12.1592 C.ar    1  UNL1        0.1843
     17 C          67.5093   93.9414    9.2734 C.3     1  UNL1        0.0266
     18 C          66.0719   94.0211    9.6948 C.3     1  UNL1        0.1091
     19 C          63.8744   86.7145   14.7116 C.ar    1  UNL1        0.0362
     20 C          64.2742   85.5840   15.6129 C.ar    1  UNL1        0.0044
     21 C          64.2480   84.1734   15.1035 C.ar    1  UNL1        0.0185
     22 C          63.8218   83.8933   13.6928 C.ar    1  UNL1        0.1087
     23 C          63.4220   85.0238   12.7916 C.ar    1  UNL1        0.0552
     24 C          63.4483   86.4344   13.3010 C.ar    1  UNL1        0.1400
     25 S          63.7955   82.4827   13.1833 S.O2    1  UNL1        0.0088
     26 O          64.3719   82.9436   11.8774 O.2     1  UNL1       -0.1686
     27 O          63.2192   82.0218   14.4892 O.2     1  UNL1       -0.1686
     28 C          63.7693   81.0721   12.6739 C.3     1  UNL1        0.1560
     29 C          62.5637   80.2116   12.9105 C.3     1  UNL1        0.0276
     30 O          63.0484   87.5648   12.3998 O.3     1  UNL1       -0.4714
     31 C          62.2217   87.2935   11.1779 C.3     1  UNL1        0.2525
@<TRIPOS>BOND
     1    17    18    1
     2    18     8    1
     3     8     9   ar
     4     9    10   ar
     5    10    11   ar
     6    11    12   ar
     7    12     1    1
     8     1     2   ar
     9     2     3   ar
    10     3     4   ar
    11     4     5    1
    12     4     6   ar
    13     6    19    1
    14    19    20   ar
    15    20    21   ar
    16    21    22   ar
    17    22    25    1
    18    25    26    2
    19    25    27    2
    20    25    28    1
    21    28    29    1
    22    22    23   ar
    23    23    24   ar
    24    24    30    1
    25    30    31    1
    26     6     7   ar
    27    12    13   ar
    28    13    14   ar
    29    14    15   ar
    30    15    16   ar
    31    16     8   ar
    32    16    11   ar
    33     7     1   ar
    34    24    19   ar
@<TRIPOS>MOLECULE
*****
 31 34 0 0 0
SMALL
GASTEIGER

@<TRIPOS>ATOM
      1 C          63.1817   90.6592   11.3520 C.ar    1  UNL1        0.0033
      2 C          61.8475   91.1900   10.9184 C.ar    1  UNL1        0.0024
      3 C          60.7028   90.2474   10.6921 C.ar    1  UNL1        0.0296
      4 C          60.8924   88.7739   10.8994 C.ar    1  UNL1        0.1402
      5 F          59.7477   87.8313   10.6732 F       1  UNL1       -0.2042
      6 C          62.2267   88.2431   11.3331 C.ar    1  UNL1        0.0304
      7 C          63.3713   89.1857   11.5593 C.ar    1  UNL1        0.0024
      8 N          66.3502   92.7247   14.6501 N.ar    1  UNL1       -0.2931
      9 C          65.4089   91.7738   15.3282 C.ar    1  UNL1        0.1797
     10 N          64.4980   91.1996   14.2839 N.ar    1  UNL1       -0.2222
     11 C          64.8764   91.7956   12.9603 C.ar    1  UNL1        0.1203
     12 C          64.3265   91.6018   11.5783 C.ar    1  UNL1        0.0417
     13 C          64.9212   92.3505   10.4226 C.ar    1  UNL1        0.1238
     14 N          66.0659   93.2931   10.6490 N.ar    1  UNL1       -0.1449
     15 N          66.6158   93.4869   12.0310 N.ar    1  UNL1       -0.1285
     16 C          66.0211   92.7382   13.1867 C.ar    1  UNL1        0.1843
     17 C          68.7029   92.8516   15.7449 C.3     1  UNL1        0.0266
     18 C          67.4308   93.5222   15.3181 C.3     1  UNL1        0.1091
     19 C          62.4162   86.7696   11.5404 C.ar    1  UNL1        0.0362
     20 C          61.9077   85.7969   10.5180 C.ar    1  UNL1        0.0044
     21 C          62.0973   84.3234   10.7253 C.ar    1  UNL1        0.0185
     22 C          62.7954   83.8227   11.9550 C.ar    1  UNL1        0.1087
     23 C          63.3038   84.7955   12.9773 C.ar    1  UNL1        0.0552
     24 C          63.1143   86.2689   12.7700 C.ar    1  UNL1        0.1400
     25 S          62.9849   82.3493   12.1623 S.O2    1  UNL1        0.0088
     26 O          62.3946   82.4666   13.5363 O.2     1  UNL1       -0.1686
     27 O          63.5752   82.2319   10.7884 O.2     1  UNL1       -0.1686
     28 C          63.1745   80.8758   12.3697 C.3     1  UNL1        0.1560
     29 C          62.3144   80.1401   13.3540 C.3     1  UNL1        0.0276
     30 O          63.6228   87.2417   13.7924 O.3     1  UNL1       -0.4714
     31 C          64.5798   86.7836   14.8527 C.3     1  UNL1        0.2525
@<TRIPOS>BOND
     1    17    18    1
     2    18     8    1
     3     8     9   ar
     4     9    10   ar
     5    10    11   ar
     6    11    12   ar
     7    12     1    1
     8     1     2   ar
     9     2     3   ar
    10     3     4   ar
    11     4     5    1
    12     4     6   ar
    13     6    19    1
    14    19    20   ar
    15    20    21   ar
    16    21    22   ar
    17    22    25    1
    18    25    26    2
    19    25    27    2
    20    25    28    1
    21    28    29    1
    22    22    23   ar
    23    23    24   ar
    24    24    30    1
    25    30    31    1
    26     6     7   ar
    27    12    13   ar
    28    13    14   ar
    29    14    15   ar
    30    15    16   ar
    31    16     8   ar
    32    16    11   ar
    33     7     1   ar
    34    24    19   ar
@<TRIPOS>MOLECULE
*****
 31 34 0 0 0
SMALL
GASTEIGER

@<TRIPOS>ATOM
      1 C          63.1040   90.6028   11.2950 C.ar    1  UNL1        0.0033
      2 C          61.7665   91.1368   10.8756 C.ar    1  UNL1        0.0024
      3 C          60.6259   90.1939   10.6302 C.ar    1  UNL1        0.0296
      4 C          60.8230   88.7171   10.8041 C.ar    1  UNL1        0.1402
      5 F          59.6825   87.7743   10.5586 F       1  UNL1       -0.2042
      6 C          62.1606   88.1832   11.2234 C.ar    1  UNL1        0.0304
      7 C          63.3010   89.1260   11.4689 C.ar    1  UNL1        0.0024
      8 N          66.2392   92.6425   14.6406 N.ar    1  UNL1       -0.2931
      9 C          65.2943   91.6829   15.3011 C.ar    1  UNL1        0.1797
     10 N          64.3938   91.1170   14.2433 N.ar    1  UNL1       -0.2222
     11 C          64.7822   91.7270   12.9291 C.ar    1  UNL1        0.1203
     12 C          64.2446   91.5457   11.5405 C.ar    1  UNL1        0.0417
     13 C          64.8475   92.3072   10.3975 C.ar    1  UNL1        0.1238
     14 N          65.9880   93.2500   10.6430 N.ar    1  UNL1       -0.1449
     15 N          66.5256   93.4313   12.0316 N.ar    1  UNL1       -0.1285
     16 C          65.9227   92.6698   13.1746 C.ar    1  UNL1        0.1843
     17 C          68.4720   92.7320   15.9660 C.3     1  UNL1        0.0266
     18 C          67.3123   93.4357   15.3257 C.3     1  UNL1        0.1091
     19 C          62.3576   86.7064   11.3973 C.ar    1  UNL1        0.0362
     20 C          62.5844   86.1360   12.7661 C.ar    1  UNL1        0.0044
     21 C          62.7814   84.6592   12.9400 C.ar    1  UNL1        0.0185
     22 C          62.7516   83.7528   11.7451 C.ar    1  UNL1        0.1087
     23 C          62.5248   84.3231   10.3765 C.ar    1  UNL1        0.0552
     24 C          62.3278   85.7999   10.2026 C.ar    1  UNL1        0.1400
     25 S          62.9487   82.2760   11.9190 S.O2    1  UNL1        0.0088
     26 O          63.5839   82.2010   10.5623 O.2     1  UNL1       -0.1686
     27 O          62.3134   82.3510   13.2758 O.2     1  UNL1       -0.1686
     28 C          63.1457   80.7992   12.0929 C.3     1  UNL1        0.1560
     29 C          62.3623   80.0554   13.1337 C.3     1  UNL1        0.0276
     30 O          62.1010   86.3703    8.8339 O.3     1  UNL1       -0.4714
     31 C          60.8860   85.9745    8.0483 C.3     1  UNL1        0.2525
@<TRIPOS>BOND
     1    17    18    1
     2    18     8    1
     3     8     9   ar
     4     9    10   ar
     5    10    11   ar
     6    11    12   ar
     7    12     1    1
     8     1     2   ar
     9     2     3   ar
    10     3     4   ar
    11     4     5    1
    12     4     6   ar
    13     6    19    1
    14    19    20   ar
    15    20    21   ar
    16    21    22   ar
    17    22    25    1
    18    25    26    2
    19    25    27    2
    20    25    28    1
    21    28    29    1
    22    22    23   ar
    23    23    24   ar
    24    24    30    1
    25    30    31    1
    26     6     7   ar
    27    12    13   ar
    28    13    14   ar
    29    14    15   ar
    30    15    16   ar
    31    16     8   ar
    32    16    11   ar
    33     7     1   ar
    34    24    19   ar
@<TRIPOS>MOLECULE
*****
 31 34 0 0 0
SMALL
GASTEIGER

@<TRIPOS>ATOM
      1 C          63.9834   90.1665   13.6723 C.ar    1  UNL1        0.0033
      2 C          63.8169   90.7120   15.0596 C.ar    1  UNL1        0.0024
      3 C          63.6039   89.7766   16.2128 C.ar    1  UNL1        0.0296
      4 C          63.5574   88.2957   15.9786 C.ar    1  UNL1        0.1402
      5 F          63.3444   87.3603   17.1317 F       1  UNL1       -0.2042
      6 C          63.7239   87.7502   14.5912 C.ar    1  UNL1        0.0304
      7 C          63.9369   88.6856   13.4381 C.ar    1  UNL1        0.0024
      8 N          66.2204   94.3274   11.9798 N.ar    1  UNL1       -0.2931
      9 C          66.5782   94.0668   13.4130 C.ar    1  UNL1        0.1797
     10 N          65.8758   92.8140   13.8456 N.ar    1  UNL1       -0.2222
     11 C          65.0839   92.3004   12.6797 C.ar    1  UNL1        0.1203
     12 C          64.1964   91.1019   12.5191 C.ar    1  UNL1        0.0417
     13 C          63.5219   90.8387   11.2055 C.ar    1  UNL1        0.1238
     14 N          63.7349   91.7740   10.0524 N.ar    1  UNL1       -0.1449
     15 N          64.6224   92.9726   10.2129 N.ar    1  UNL1       -0.1285
     16 C          65.2969   93.2358   11.5266 C.ar    1  UNL1        0.1843
     17 C          66.1584   96.8556   11.3842 C.3     1  UNL1        0.0266
     18 C          66.7017   95.4778   11.1461 C.3     1  UNL1        0.1091
     19 C          63.6774   86.2693   14.3570 C.ar    1  UNL1        0.0362
     20 C          64.2082   85.3284   15.3977 C.ar    1  UNL1        0.0044
     21 C          64.1617   83.8475   15.1635 C.ar    1  UNL1        0.0185
     22 C          63.5845   83.3076   13.8885 C.ar    1  UNL1        0.1087
     23 C          63.0537   84.2485   12.8479 C.ar    1  UNL1        0.0552
     24 C          63.1002   85.7294   13.0821 C.ar    1  UNL1        0.1400
     25 S          63.5380   81.8267   13.6543 S.O2    1  UNL1        0.0088
     26 O          64.5885   81.9617   12.5922 O.2     1  UNL1       -0.1686
     27 O          62.4874   81.6917   14.7165 O.2     1  UNL1       -0.1686
     28 C          63.4915   80.3459   13.4201 C.3     1  UNL1        0.1560
     29 C          62.1733   79.6303   13.4025 C.3     1  UNL1        0.0276
     30 O          62.5694   86.6704   12.0414 O.3     1  UNL1       -0.4714
     31 C          61.4141   86.2591   11.1778 C.3     1  UNL1        0.2525
@<TRIPOS>BOND
     1    17    18    1
     2    18     8    1
     3     8     9   ar
     4     9    10   ar
     5    10    11   ar
     6    11    12   ar
     7    12     1    1
     8     1     2   ar
     9     2     3   ar
    10     3     4   ar
    11     4     5    1
    12     4     6   ar
    13     6    19    1
    14    19    20   ar
    15    20    21   ar
    16    21    22   ar
    17    22    25    1
    18    25    26    2
    19    25    27    2
    20    25    28    1
    21    28    29    1
    22    22    23   ar
    23    23    24   ar
    24    24    30    1
    25    30    31    1
    26     6     7   ar
    27    12    13   ar
    28    13    14   ar
    29    14    15   ar
    30    15    16   ar
    31    16     8   ar
    32    16    11   ar
    33     7     1   ar
    34    24    19   ar
@<TRIPOS>MOLECULE
*****
 31 34 0 0 0
SMALL
GASTEIGER

@<TRIPOS>ATOM
      1 C          64.9817   90.4870   14.8073 C.ar    1  UNL1        0.0033
      2 C          64.1193   91.0630   15.8910 C.ar    1  UNL1        0.0024
      3 C          63.0989   90.2020   16.5748 C.ar    1  UNL1        0.0296
      4 C          62.9409   88.7650   16.1748 C.ar    1  UNL1        0.1402
      5 F          61.9206   87.9039   16.8585 F       1  UNL1       -0.2042
      6 C          63.8034   88.1890   15.0909 C.ar    1  UNL1        0.0304
      7 C          64.8237   89.0500   14.4072 C.ar    1  UNL1        0.0024
      8 N          66.1886   93.1672   10.7400 N.ar    1  UNL1       -0.2931
      9 C          64.8264   92.5552   10.5988 C.ar    1  UNL1        0.1797
     10 N          64.5377   91.7740   11.8463 N.ar    1  UNL1       -0.2222
     11 C          65.7215   91.9032   12.7585 C.ar    1  UNL1        0.1203
     12 C          66.0021   91.3481   14.1235 C.ar    1  UNL1        0.0417
     13 C          67.3030   91.6539   14.8046 C.ar    1  UNL1        0.1238
     14 N          68.3233   92.5149   14.1209 N.ar    1  UNL1       -0.1449
     15 N          68.0427   93.0701   12.7559 N.ar    1  UNL1       -0.1285
     16 C          66.7418   92.7642   12.0748 C.ar    1  UNL1        0.1843
     17 C          66.8781   95.5219    9.8856 C.3     1  UNL1        0.0266
     18 C          66.8769   94.0305    9.7246 C.3     1  UNL1        0.1091
     19 C          63.6454   86.7520   14.6909 C.ar    1  UNL1        0.0362
     20 C          63.4175   86.3948   13.2519 C.ar    1  UNL1        0.0044
     21 C          63.2595   84.9577   12.8519 C.ar    1  UNL1        0.0185
     22 C          63.3294   83.8780   13.8908 C.ar    1  UNL1        0.1087
     23 C          63.5573   84.2352   15.3297 C.ar    1  UNL1        0.0552
     24 C          63.7153   85.6722   15.7297 C.ar    1  UNL1        0.1400
     25 S          63.1714   82.4409   13.4908 S.O2    1  UNL1        0.0088
     26 O          63.6887   82.0109   14.8314 O.2     1  UNL1       -0.1686
     27 O          62.6541   82.8710   12.1501 O.2     1  UNL1       -0.1686
     28 C          63.0134   81.0039   13.0907 C.3     1  UNL1        0.1560
     29 C          61.8531   80.2052   13.6060 C.3     1  UNL1        0.0276
     30 O          63.9432   86.0295   17.1687 O.3     1  UNL1       -0.4714
     31 C          62.7893   86.0558   18.1267 C.3     1  UNL1        0.2525
@<TRIPOS>BOND
     1    17    18    1
     2    18     8    1
     3     8     9   ar
     4     9    10   ar
     5    10    11   ar
     6    11    12   ar
     7    12     1    1
     8     1     2   ar
     9     2     3   ar
    10     3     4   ar
    11     4     5    1
    12     4     6   ar
    13     6    19    1
    14    19    20   ar
    15    20    21   ar
    16    21    22   ar
    17    22    25    1
    18    25    26    2
    19    25    27    2
    20    25    28    1
    21    28    29    1
    22    22    23   ar
    23    23    24   ar
    24    24    30    1
    25    30    31    1
    26     6     7   ar
    27    12    13   ar
    28    13    14   ar
    29    14    15   ar
    30    15    16   ar
    31    16     8   ar
    32    16    11   ar
    33     7     1   ar
    34    24    19   ar
