@<TRIPOS>MOLECULE
*****
 26 29 0 0 0
SMALL
GASTEIGER

@<TRIPOS>ATOM
      1 C          63.6180   90.6053   12.9698 C.ar    1  UNL1        0.1215
      2 N          64.5304   91.5492   12.2442 N.ar    1  UNL1       -0.2309
      3 C          65.4435   92.1793   13.2538 C.ar    1  UNL1        0.0983
      4 C          66.5470   93.1863   13.1186 C.ar    1  UNL1        0.0206
      5 C          67.3023   93.6388   14.3329 C.ar    1  UNL1        0.0016
      6 C          66.9542   93.0843   15.6825 C.ar    1  UNL1        0.0016
      7 C          65.8507   92.0773   15.8177 C.ar    1  UNL1        0.0188
      8 C          65.0954   91.6248   14.6034 C.ar    1  UNL1        0.0789
      9 N          63.9672   90.6521   14.4278 N.ar    1  UNL1       -0.3106
     10 N          61.7986   87.5501   11.2076 N.3     1  UNL1       -0.2736
     11 C          60.3984   88.0774   11.1006 C.3     1  UNL1        0.0721
     12 C          60.0714   89.4473   11.6167 C.3     1  UNL1        0.0178
     13 C          61.1446   90.2899   12.2397 C.3     1  UNL1        0.0103
     14 C          62.5448   89.7627   12.3467 C.3     1  UNL1        0.0729
     15 C          62.8717   88.3928   11.8307 C.3     1  UNL1        0.0795
     16 C          62.3587   85.0525   11.6528 C.3     1  UNL1        0.0173
     17 C          62.1256   86.1801   10.6915 C.3     1  UNL1        0.0576
     18 C          62.2195   85.9378    9.2143 C.3     1  UNL1        0.0173
     19 C          63.3045   89.8643   15.5188 C.3     1  UNL1        0.1339
     20 C          63.5493   88.3890   15.6335 C.ar    1  UNL1        0.0006
     21 C          62.9299   87.6109   16.7565 C.ar    1  UNL1       -0.0001
     22 C          63.1747   86.1355   16.8713 C.ar    1  UNL1        0.0294
     23 C          64.0391   85.4381   15.8630 C.ar    1  UNL1        0.1401
     24 F          64.2840   83.9627   15.9778 F       1  UNL1       -0.2042
     25 C          64.6585   86.2161   14.7401 C.ar    1  UNL1        0.0294
     26 C          64.4137   87.6915   14.6253 C.ar    1  UNL1       -0.0001
@<TRIPOS>BOND
     1    16    17    1
     2    17    18    1
     3    17    10    1
     4    10    11    1
     5    11    12    1
     6    12    13    1
     7    13    14    1
     8    14     1    1
     9     1     2   ar
    10     2     3   ar
    11     3     4   ar
    12     4     5   ar
    13     5     6   ar
    14     6     7   ar
    15     7     8   ar
    16     8     9   ar
    17     9    19    1
    18    19    20    1
    19    20    21   ar
    20    21    22   ar
    21    22    23   ar
    22    23    24    1
    23    23    25   ar
    24    25    26   ar
    25    14    15    1
    26    15    10    1
    27     9     1   ar
    28    26    20   ar
    29     8     3   ar
@<TRIPOS>MOLECULE
*****
 26 29 0 0 0
SMALL
GASTEIGER

@<TRIPOS>ATOM
      1 C          63.1476   86.6944   12.8276 C.ar    1  UNL1        0.1215
      2 N          63.9158   87.9106   13.2525 N.ar    1  UNL1       -0.2309
      3 C          63.4681   89.0623   12.4021 C.ar    1  UNL1        0.0983
      4 C          63.8769   90.5051   12.3705 C.ar    1  UNL1        0.0206
      5 C          63.2407   91.4435   11.3883 C.ar    1  UNL1        0.0016
      6 C          62.1957   90.9390   10.4378 C.ar    1  UNL1        0.0016
      7 C          61.7869   89.4962   10.4694 C.ar    1  UNL1        0.0188
      8 C          62.4231   88.5578   11.4516 C.ar    1  UNL1        0.0789
      9 N          62.2251   87.0944   11.7145 N.ar    1  UNL1       -0.3106
     10 N          63.1999   82.7378   13.1326 N.3     1  UNL1       -0.2736
     11 C          63.5415   82.5699   14.5835 C.3     1  UNL1        0.0721
     12 C          63.7518   83.7767   15.4491 C.3     1  UNL1        0.0178
     13 C          63.6205   85.1515   14.8637 C.3     1  UNL1        0.0103
     14 C          63.2789   85.3195   13.4129 C.3     1  UNL1        0.0729
     15 C          63.0686   84.1127   12.5473 C.3     1  UNL1        0.0795
     16 C          63.2593   81.6086   10.7935 C.3     1  UNL1        0.0173
     17 C          62.9896   81.5309   12.2670 C.3     1  UNL1        0.0576
     18 C          62.5096   80.2464   12.8749 C.3     1  UNL1        0.0173
     19 C          61.2718   86.1898   10.9914 C.3     1  UNL1        0.1339
     20 C          61.5512   85.7841    9.5746 C.ar    1  UNL1        0.0006
     21 C          60.5069   85.9858    8.5168 C.ar    1  UNL1       -0.0001
     22 C          60.7863   85.5802    7.1000 C.ar    1  UNL1        0.0294
     23 C          62.1101   84.9729    6.7409 C.ar    1  UNL1        0.1401
     24 F          62.3895   84.5673    5.3241 F       1  UNL1       -0.2042
     25 C          63.1543   84.7713    7.7986 C.ar    1  UNL1        0.0294
     26 C          62.8749   85.1769    9.2155 C.ar    1  UNL1       -0.0001
@<TRIPOS>BOND
     1    16    17    1
     2    17    18    1
     3    17    10    1
     4    10    11    1
     5    11    12    1
     6    12    13    1
     7    13    14    1
     8    14     1    1
     9     1     2   ar
    10     2     3   ar
    11     3     4   ar
    12     4     5   ar
    13     5     6   ar
    14     6     7   ar
    15     7     8   ar
    16     8     9   ar
    17     9    19    1
    18    19    20    1
    19    20    21   ar
    20    21    22   ar
    21    22    23   ar
    22    23    24    1
    23    23    25   ar
    24    25    26   ar
    25    14    15    1
    26    15    10    1
    27     9     1   ar
    28    26    20   ar
    29     8     3   ar
@<TRIPOS>MOLECULE
*****
 26 29 0 0 0
SMALL
GASTEIGER

@<TRIPOS>ATOM
      1 C          64.4454   89.8585   14.1640 C.ar    1  UNL1        0.1215
      2 N          65.7825   90.5371   14.2071 N.ar    1  UNL1       -0.2309
      3 C          65.8225   91.5529   13.1041 C.ar    1  UNL1        0.0983
      4 C          66.8844   92.5175   12.6661 C.ar    1  UNL1        0.0206
      5 C          66.6340   93.4314   11.5033 C.ar    1  UNL1        0.0016
      6 C          65.3217   93.3806   10.7785 C.ar    1  UNL1        0.0016
      7 C          64.2598   92.4160   11.2165 C.ar    1  UNL1        0.0188
      8 C          64.5102   91.5021   12.3793 C.ar    1  UNL1        0.0789
      9 N          63.6592   90.4549   13.0344 N.ar    1  UNL1       -0.3106
     10 N          63.6646   86.2501   15.6199 N.3     1  UNL1       -0.2736
     11 C          63.0400   86.6048   16.9367 C.3     1  UNL1        0.0721
     12 C          62.8838   88.0440   17.3293 C.3     1  UNL1        0.0178
     13 C          63.3523   89.1286   16.4050 C.3     1  UNL1        0.0103
     14 C          63.9769   88.7739   15.0882 C.3     1  UNL1        0.0729
     15 C          64.1331   87.3347   14.6957 C.3     1  UNL1        0.0795
     16 C          62.7757   83.8088   15.6195 C.3     1  UNL1        0.0173
     17 C          63.8207   84.8108   15.2273 C.3     1  UNL1        0.0576
     18 C          65.0219   84.3736   14.4425 C.3     1  UNL1        0.0173
     19 C          62.2663   90.0715   12.6307 C.3     1  UNL1        0.1339
     20 C          62.0512   89.1061   11.5031 C.ar    1  UNL1        0.0006
     21 C          61.3063   89.5405   10.2756 C.ar    1  UNL1       -0.0001
     22 C          61.0911   88.5751    9.1479 C.ar    1  UNL1        0.0294
     23 C          61.6208   87.1752    9.2477 C.ar    1  UNL1        0.1401
     24 F          61.4056   86.2098    8.1200 F       1  UNL1       -0.2042
     25 C          62.3656   86.7409   10.4751 C.ar    1  UNL1        0.0294
     26 C          62.5808   87.7063   11.6028 C.ar    1  UNL1       -0.0001
@<TRIPOS>BOND
     1    16    17    1
     2    17    18    1
     3    17    10    1
     4    10    11    1
     5    11    12    1
     6    12    13    1
     7    13    14    1
     8    14     1    1
     9     1     2   ar
    10     2     3   ar
    11     3     4   ar
    12     4     5   ar
    13     5     6   ar
    14     6     7   ar
    15     7     8   ar
    16     8     9   ar
    17     9    19    1
    18    19    20    1
    19    20    21   ar
    20    21    22   ar
    21    22    23   ar
    22    23    24    1
    23    23    25   ar
    24    25    26   ar
    25    14    15    1
    26    15    10    1
    27     9     1   ar
    28    26    20   ar
    29     8     3   ar
@<TRIPOS>MOLECULE
*****
 26 29 0 0 0
SMALL
GASTEIGER

@<TRIPOS>ATOM
      1 C          62.1697   89.3237   10.8797 C.ar    1  UNL1        0.1215
      2 N          61.6147   90.1067    9.7269 N.ar    1  UNL1       -0.2309
      3 C          60.6774   89.2141    8.9687 C.ar    1  UNL1        0.0983
      4 C          59.8430   89.4441    7.7437 C.ar    1  UNL1        0.0206
      5 C          58.9842   88.3396    7.2029 C.ar    1  UNL1        0.0016
      6 C          58.9599   87.0050    7.8872 C.ar    1  UNL1        0.0016
      7 C          59.7944   86.7749    9.1122 C.ar    1  UNL1        0.0188
      8 C          60.6531   87.8794    9.6530 C.ar    1  UNL1        0.0789
      9 N          61.5754   87.9472   10.8340 N.ar    1  UNL1       -0.3106
     10 N          64.8693   91.6127   12.6749 N.3     1  UNL1       -0.2736
     11 C          65.1024   90.8384   13.9383 C.3     1  UNL1        0.0721
     12 C          64.3580   89.5592   14.1821 C.3     1  UNL1        0.0178
     13 C          63.3804   89.0544   13.1626 C.3     1  UNL1        0.0103
     14 C          63.1472   89.8286   11.8992 C.3     1  UNL1        0.0729
     15 C          63.8917   91.1078   11.6554 C.3     1  UNL1        0.0795
     16 C          65.5827   93.5307   11.0742 C.3     1  UNL1        0.0173
     17 C          65.6138   92.8919   12.4310 C.3     1  UNL1        0.0576
     18 C          66.3892   93.5322   13.5439 C.3     1  UNL1        0.0173
     19 C          61.8544   86.8339   11.7998 C.3     1  UNL1        0.1339
     20 C          62.5455   85.5886   11.3295 C.ar    1  UNL1        0.0006
     21 C          62.7847   85.3711    9.8647 C.ar    1  UNL1       -0.0001
     22 C          63.4759   84.1258    9.3943 C.ar    1  UNL1        0.0294
     23 C          63.9278   83.0977   10.3887 C.ar    1  UNL1        0.1401
     24 F          64.6190   81.8523    9.9183 F       1  UNL1       -0.2042
     25 C          63.6886   83.3151   11.8535 C.ar    1  UNL1        0.0294
     26 C          62.9975   84.5605   12.3239 C.ar    1  UNL1       -0.0001
@<TRIPOS>BOND
     1    16    17    1
     2    17    18    1
     3    17    10    1
     4    10    11    1
     5    11    12    1
     6    12    13    1
     7    13    14    1
     8    14     1    1
     9     1     2   ar
    10     2     3   ar
    11     3     4   ar
    12     4     5   ar
    13     5     6   ar
    14     6     7   ar
    15     7     8   ar
    16     8     9   ar
    17     9    19    1
    18    19    20    1
    19    20    21   ar
    20    21    22   ar
    21    22    23   ar
    22    23    24    1
    23    23    25   ar
    24    25    26   ar
    25    14    15    1
    26    15    10    1
    27     9     1   ar
    28    26    20   ar
    29     8     3   ar
@<TRIPOS>MOLECULE
*****
 26 29 0 0 0
SMALL
GASTEIGER

@<TRIPOS>ATOM
      1 C          63.5876   86.1026   13.2815 C.ar    1  UNL1        0.1215
      2 N          64.3678   85.1070   14.0879 N.ar    1  UNL1       -0.2309
      3 C          63.9186   83.7328   13.6881 C.ar    1  UNL1        0.0983
      4 C          64.3361   82.3672   14.1471 C.ar    1  UNL1        0.0206
      5 C          63.6958   81.1479   13.5528 C.ar    1  UNL1        0.0016
      6 C          62.6380   81.2942   12.4994 C.ar    1  UNL1        0.0016
      7 C          62.2205   82.6598   12.0403 C.ar    1  UNL1        0.0188
      8 C          62.8608   83.8791   12.6346 C.ar    1  UNL1        0.0789
      9 N          62.6563   85.3437   12.3834 N.ar    1  UNL1       -0.3106
     10 N          63.3529   89.9428   12.3081 N.3     1  UNL1       -0.2736
     11 C          63.9735   90.5799   13.5159 C.3     1  UNL1        0.0721
     12 C          64.4656   89.7246   14.6456 C.3     1  UNL1        0.0178
     13 C          64.3369   88.2321   14.5675 C.3     1  UNL1        0.0103
     14 C          63.7163   87.5950   13.3597 C.3     1  UNL1        0.0729
     15 C          63.2242   88.4504   12.2300 C.3     1  UNL1        0.0795
     16 C          63.8066   91.7225   10.4704 C.3     1  UNL1        0.0173
     17 C          62.8608   90.7981   11.1783 C.3     1  UNL1        0.0576
     18 C          61.4230   90.7291   10.7564 C.3     1  UNL1        0.0173
     19 C          61.6900   85.9440   11.4057 C.3     1  UNL1        0.1339
     20 C          61.8220   85.6459    9.9416 C.ar    1  UNL1        0.0006
     21 C          60.7201   86.0247    8.9968 C.ar    1  UNL1       -0.0001
     22 C          60.8520   85.7267    7.5326 C.ar    1  UNL1        0.0294
     23 C          62.0858   85.0498    7.0132 C.ar    1  UNL1        0.1401
     24 F          62.2177   84.7517    5.5491 F       1  UNL1       -0.2042
     25 C          63.1876   84.6710    7.9580 C.ar    1  UNL1        0.0294
     26 C          63.0557   84.9691    9.4221 C.ar    1  UNL1       -0.0001
@<TRIPOS>BOND
     1    16    17    1
     2    17    18    1
     3    17    10    1
     4    10    11    1
     5    11    12    1
     6    12    13    1
     7    13    14    1
     8    14     1    1
     9     1     2   ar
    10     2     3   ar
    11     3     4   ar
    12     4     5   ar
    13     5     6   ar
    14     6     7   ar
    15     7     8   ar
    16     8     9   ar
    17     9    19    1
    18    19    20    1
    19    20    21   ar
    20    21    22   ar
    21    22    23   ar
    22    23    24    1
    23    23    25   ar
    24    25    26   ar
    25    14    15    1
    26    15    10    1
    27     9     1   ar
    28    26    20   ar
    29     8     3   ar
@<TRIPOS>MOLECULE
*****
 26 29 0 0 0
SMALL
GASTEIGER

@<TRIPOS>ATOM
      1 C          63.4156   86.7437   12.9255 C.ar    1  UNL1        0.1215
      2 N          64.2098   85.8415   13.8228 N.ar    1  UNL1       -0.2309
      3 C          63.8077   84.4262   13.5307 C.ar    1  UNL1        0.0983
      4 C          64.2564   83.1161   14.1069 C.ar    1  UNL1        0.0206
      5 C          63.6623   81.8334   13.6052 C.ar    1  UNL1        0.0016
      6 C          62.6195   81.8609   12.5273 C.ar    1  UNL1        0.0016
      7 C          62.1708   83.1710   11.9511 C.ar    1  UNL1        0.0188
      8 C          62.7649   84.4537   12.4528 C.ar    1  UNL1        0.0789
      9 N          62.5226   85.8860   12.0788 N.ar    1  UNL1       -0.3106
     10 N          64.2711   90.4825   13.9451 N.3     1  UNL1       -0.2736
     11 C          63.6675   91.2348   12.7964 C.3     1  UNL1        0.0721
     12 C          62.9798   90.4901   11.6907 C.3     1  UNL1        0.0178
     13 C          62.8959   88.9931   11.7337 C.3     1  UNL1        0.0103
     14 C          63.4995   88.2407   12.8824 C.3     1  UNL1        0.0729
     15 C          64.1871   88.9854   13.9881 C.3     1  UNL1        0.0795
     16 C          66.4022   91.6109   14.9121 C.3     1  UNL1        0.0173
     17 C          64.9588   91.2272   15.0508 C.3     1  UNL1        0.0576
     18 C          64.2030   91.5882   16.2952 C.3     1  UNL1        0.0173
     19 C          61.5568   86.3747   11.0403 C.3     1  UNL1        0.1339
     20 C          61.6762   85.9001    9.6225 C.ar    1  UNL1        0.0006
     21 C          60.5206   86.0573    8.6791 C.ar    1  UNL1       -0.0001
     22 C          60.6400   85.5826    7.2611 C.ar    1  UNL1        0.0294
     23 C          61.9150   84.9509    6.7866 C.ar    1  UNL1        0.1401
     24 F          62.0344   84.4763    5.3687 F       1  UNL1       -0.2042
     25 C          63.0706   84.7937    7.7299 C.ar    1  UNL1        0.0294
     26 C          62.9512   85.2683    9.1479 C.ar    1  UNL1       -0.0001
@<TRIPOS>BOND
     1    16    17    1
     2    17    18    1
     3    17    10    1
     4    10    11    1
     5    11    12    1
     6    12    13    1
     7    13    14    1
     8    14     1    1
     9     1     2   ar
    10     2     3   ar
    11     3     4   ar
    12     4     5   ar
    13     5     6   ar
    14     6     7   ar
    15     7     8   ar
    16     8     9   ar
    17     9    19    1
    18    19    20    1
    19    20    21   ar
    20    21    22   ar
    21    22    23   ar
    22    23    24    1
    23    23    25   ar
    24    25    26   ar
    25    14    15    1
    26    15    10    1
    27     9     1   ar
    28    26    20   ar
    29     8     3   ar
@<TRIPOS>MOLECULE
*****
 26 29 0 0 0
SMALL
GASTEIGER

@<TRIPOS>ATOM
      1 C          61.8684   86.3303   11.0888 C.ar    1  UNL1        0.1215
      2 N          61.4168   85.6610    9.8246 N.ar    1  UNL1       -0.2309
      3 C          60.7244   86.6878    8.9783 C.ar    1  UNL1        0.0983
      4 C          60.0754   86.6040    7.6286 C.ar    1  UNL1        0.0206
      5 C          59.4502   87.8240    7.0200 C.ar    1  UNL1        0.0016
      6 C          59.4739   89.1280    7.7611 C.ar    1  UNL1        0.0016
      7 C          60.1229   89.2118    9.1108 C.ar    1  UNL1        0.0188
      8 C          60.7481   87.9918    9.7194 C.ar    1  UNL1        0.0789
      9 N          61.4552   87.7708   11.0238 N.ar    1  UNL1       -0.3106
     10 N          63.1692   83.5499   13.6042 N.3     1  UNL1       -0.2736
     11 C          64.0756   84.3623   14.4808 C.3     1  UNL1        0.0721
     12 C          64.2462   85.8307   14.2267 C.3     1  UNL1        0.0178
     13 C          63.5105   86.4867   13.0960 C.3     1  UNL1        0.0103
     14 C          62.6041   85.6743   12.2195 C.3     1  UNL1        0.0729
     15 C          62.4335   84.2059   12.4735 C.3     1  UNL1        0.0795
     16 C          61.6753   81.5496   14.3235 C.3     1  UNL1        0.0173
     17 C          62.9984   82.0814   13.8583 C.3     1  UNL1        0.0576
     18 C          64.1509   81.1447   13.6471 C.3     1  UNL1        0.0173
     19 C          61.7050   88.8082   12.0780 C.3     1  UNL1        0.1339
     20 C          62.7228   89.8849   11.8444 C.ar    1  UNL1        0.0006
     21 C          62.8188   90.5479   10.5022 C.ar    1  UNL1       -0.0001
     22 C          63.8366   91.6246   10.2686 C.ar    1  UNL1        0.0294
     23 C          64.7586   92.0384   11.3771 C.ar    1  UNL1        0.1401
     24 F          65.7764   93.1152   11.1434 F       1  UNL1       -0.2042
     25 C          64.6626   91.3755   12.7192 C.ar    1  UNL1        0.0294
     26 C          63.6448   90.2987   12.9529 C.ar    1  UNL1       -0.0001
@<TRIPOS>BOND
     1    16    17    1
     2    17    18    1
     3    17    10    1
     4    10    11    1
     5    11    12    1
     6    12    13    1
     7    13    14    1
     8    14     1    1
     9     1     2   ar
    10     2     3   ar
    11     3     4   ar
    12     4     5   ar
    13     5     6   ar
    14     6     7   ar
    15     7     8   ar
    16     8     9   ar
    17     9    19    1
    18    19    20    1
    19    20    21   ar
    20    21    22   ar
    21    22    23   ar
    22    23    24    1
    23    23    25   ar
    24    25    26   ar
    25    14    15    1
    26    15    10    1
    27     9     1   ar
    28    26    20   ar
    29     8     3   ar
@<TRIPOS>MOLECULE
*****
 26 29 0 0 0
SMALL
GASTEIGER

@<TRIPOS>ATOM
      1 C          63.4322   84.3652   12.9603 C.ar    1  UNL1        0.1215
      2 N          63.1159   83.2388   13.8991 N.ar    1  UNL1       -0.2309
      3 C          62.9745   81.9851   13.0878 C.ar    1  UNL1        0.0983
      4 C          62.6669   80.5688   13.4744 C.ar    1  UNL1        0.0206
      5 C          62.5882   79.5040   12.4208 C.ar    1  UNL1        0.0016
      6 C          62.8172   79.8555   10.9807 C.ar    1  UNL1        0.0016
      7 C          63.1248   81.2718   10.5941 C.ar    1  UNL1        0.0188
      8 C          63.2035   82.3366   11.6477 C.ar    1  UNL1        0.0789
      9 N          63.4864   83.8075   11.5689 N.ar    1  UNL1       -0.3106
     10 N          63.4154   88.3314   12.8235 N.3     1  UNL1       -0.2736
     11 C          64.1013   88.6626   14.1156 C.3     1  UNL1        0.0721
     12 C          64.5642   87.5613   15.0227 C.3     1  UNL1        0.0178
     13 C          64.3412   86.1288   14.6376 C.3     1  UNL1        0.0103
     14 C          63.6553   85.7976   13.3454 C.3     1  UNL1        0.0729
     15 C          63.1924   86.8989   12.4384 C.3     1  UNL1        0.0795
     16 C          63.3630   90.8498   12.1870 C.3     1  UNL1        0.0173
     17 C          62.9524   89.4327   11.9163 C.3     1  UNL1        0.0576
     18 C          62.0790   89.1169   10.7385 C.3     1  UNL1        0.0173
     19 C          63.7730   84.5845   10.3182 C.3     1  UNL1        0.1339
     20 C          62.6416   85.0842    9.4698 C.ar    1  UNL1        0.0006
     21 C          61.4885   85.8033   10.1050 C.ar    1  UNL1       -0.0001
     22 C          60.3570   86.3031    9.2566 C.ar    1  UNL1        0.0294
     23 C          60.3785   86.0838    7.7728 C.ar    1  UNL1        0.1401
     24 F          59.2470   86.5835    6.9243 F       1  UNL1       -0.2042
     25 C          61.5315   85.3647    7.1376 C.ar    1  UNL1        0.0294
     26 C          62.6630   84.8650    7.9860 C.ar    1  UNL1       -0.0001
@<TRIPOS>BOND
     1    16    17    1
     2    17    18    1
     3    17    10    1
     4    10    11    1
     5    11    12    1
     6    12    13    1
     7    13    14    1
     8    14     1    1
     9     1     2   ar
    10     2     3   ar
    11     3     4   ar
    12     4     5   ar
    13     5     6   ar
    14     6     7   ar
    15     7     8   ar
    16     8     9   ar
    17     9    19    1
    18    19    20    1
    19    20    21   ar
    20    21    22   ar
    21    22    23   ar
    22    23    24    1
    23    23    25   ar
    24    25    26   ar
    25    14    15    1
    26    15    10    1
    27     9     1   ar
    28    26    20   ar
    29     8     3   ar
@<TRIPOS>MOLECULE
*****
 26 29 0 0 0
SMALL
GASTEIGER

@<TRIPOS>ATOM
      1 C          63.8550   87.6732   14.2400 C.ar    1  UNL1        0.1215
      2 N          64.1267   86.4105   15.0028 N.ar    1  UNL1       -0.2309
      3 C          63.8059   85.2502   14.1078 C.ar    1  UNL1        0.0983
      4 C          63.8811   83.7674   14.3211 C.ar    1  UNL1        0.0206
      5 C          63.4863   82.8302   13.2186 C.ar    1  UNL1        0.0016
      6 C          63.0164   83.3758   11.9027 C.ar    1  UNL1        0.0016
      7 C          62.9412   84.8586   11.6894 C.ar    1  UNL1        0.0188
      8 C          63.3360   85.7958   12.7920 C.ar    1  UNL1        0.0789
      9 N          63.3663   87.2933   12.8737 N.ar    1  UNL1       -0.3106
     10 N          65.0061   91.4646   14.4641 N.3     1  UNL1       -0.2736
     11 C          64.4086   91.8650   15.7803 C.3     1  UNL1        0.0721
     12 C          63.6266   90.8681   16.5832 C.3     1  UNL1        0.0178
     13 C          63.4420   89.4708   16.0697 C.3     1  UNL1        0.0103
     14 C          64.0395   89.0704   14.7535 C.3     1  UNL1        0.0729
     15 C          64.8216   90.0673   13.9506 C.3     1  UNL1        0.0795
     16 C          66.7211   93.4129   14.3500 C.3     1  UNL1        0.0173
     17 C          65.7882   92.4615   13.6611 C.3     1  UNL1        0.0576
     18 C          65.6374   92.5069   12.1695 C.3     1  UNL1        0.0173
     19 C          62.9764   88.2439   11.7809 C.3     1  UNL1        0.1339
     20 C          61.9176   87.8561   10.7918 C.ar    1  UNL1        0.0006
     21 C          60.4831   88.2095   11.0515 C.ar    1  UNL1       -0.0001
     22 C          59.4241   87.8217   10.0624 C.ar    1  UNL1        0.0294
     23 C          59.7998   87.0805    8.8135 C.ar    1  UNL1        0.1401
     24 F          58.7408   86.6927    7.8245 F       1  UNL1       -0.2042
     25 C          61.2342   86.7271    8.5539 C.ar    1  UNL1        0.0294
     26 C          62.2931   87.1149    9.5429 C.ar    1  UNL1       -0.0001
@<TRIPOS>BOND
     1    16    17    1
     2    17    18    1
     3    17    10    1
     4    10    11    1
     5    11    12    1
     6    12    13    1
     7    13    14    1
     8    14     1    1
     9     1     2   ar
    10     2     3   ar
    11     3     4   ar
    12     4     5   ar
    13     5     6   ar
    14     6     7   ar
    15     7     8   ar
    16     8     9   ar
    17     9    19    1
    18    19    20    1
    19    20    21   ar
    20    21    22   ar
    21    22    23   ar
    22    23    24    1
    23    23    25   ar
    24    25    26   ar
    25    14    15    1
    26    15    10    1
    27     9     1   ar
    28    26    20   ar
    29     8     3   ar
