@<TRIPOS>MOLECULE
*****
 29 31 0 0 0
SMALL
GASTEIGER

@<TRIPOS>ATOM
      1 N          64.6867   88.0426   14.6209 N.am    1  UNL1       -0.2969
      2 C          64.0352   89.3852   14.7719 C.2     1  UNL1        0.2461
      3 O          62.7266   89.5068   15.4948 O.2     1  UNL1       -0.2701
      4 H          65.5456   87.9628   14.1464 H       1  UNL1        0.1501
      5 C          64.6924   90.6064   14.1999 C.ar    1  UNL1        0.0540
      6 C          65.5647   91.4645   15.0674 C.ar    1  UNL1        0.0061
      7 C          66.2217   92.6856   14.4955 C.ar    1  UNL1        0.0198
      8 C          66.0066   93.0485   13.0560 C.ar    1  UNL1        0.0892
      9 N          66.5188   94.1835   12.2196 N.ar    1  UNL1       -0.2245
     10 C          65.9631   94.0267   10.8352 C.ar    1  UNL1        0.1567
     11 N          66.2182   94.9412    9.6739 N.pl3   1  UNL1       -0.3375
     12 S          65.1074   92.7948   10.8160 S.2     1  UNL1       -0.0520
     13 C          65.1343   92.1903   12.1885 C.ar    1  UNL1        0.0498
     14 C          64.4772   90.9692   12.7605 C.ar    1  UNL1        0.0126
     15 H          66.7978   95.7291    9.7859 H       1  UNL1        0.1442
     16 H          65.8061   94.7535    8.7997 H       1  UNL1        0.1442
     17 C          64.0296   86.8214   15.1928 C.3     1  UNL1        0.1168
     18 C          63.1729   83.1603   13.9233 C.ar    1  UNL1        0.1752
     19 C          63.5692   84.2910   14.8257 C.ar    1  UNL1        0.0376
     20 C          63.6332   85.6908   14.2904 C.ar    1  UNL1        0.0037
     21 C          63.3009   85.9598   12.8527 C.ar    1  UNL1        0.0376
     22 C          62.9046   84.8291   11.9502 C.ar    1  UNL1        0.1752
     23 C          62.8406   83.4293   12.4855 C.ar    1  UNL1        0.2060
     24 C          61.8470   80.9616   14.3201 C.3     1  UNL1        0.2526
     25 O          63.1089   81.7605   14.4586 O.3     1  UNL1       -0.4683
     26 O          62.5723   85.0982   10.5124 O.3     1  UNL1       -0.4683
     27 C          61.4217   85.9952   10.1638 C.3     1  UNL1        0.2526
     28 O          62.4443   82.2986   11.5831 O.3     1  UNL1       -0.4654
     29 C          63.4636   81.6637   10.6843 C.3     1  UNL1        0.2528
@<TRIPOS>BOND
     1    24    25    1
     2    25    18    1
     3    18    19   ar
     4    19    20   ar
     5    20    17    1
     6    17     1    1
     7     1     2   am
     8     2     3    2
     9     2     5    1
    10     5     6   ar
    11     6     7   ar
    12     7     8   ar
    13     8     9   ar
    14     9    10   ar
    15    10    11    1
    16    10    12   ar
    17    12    13   ar
    18    13    14   ar
    19    20    21   ar
    20    21    22   ar
    21    22    26    1
    22    26    27    1
    23    22    23   ar
    24    23    28    1
    25    28    29    1
    26    23    18   ar
    27    14     5   ar
    28    13     8   ar
    29     1     4    1
    30    11    15    1
    31    11    16    1
@<TRIPOS>MOLECULE
*****
 29 31 0 0 0
SMALL
GASTEIGER

@<TRIPOS>ATOM
      1 N          64.6681   88.0184   14.6394 N.am    1  UNL1       -0.2969
      2 C          64.0330   89.3649   14.8221 C.2     1  UNL1        0.2461
      3 O          62.7463   89.4901   15.5829 O.2     1  UNL1       -0.2701
      4 H          65.5126   87.9362   14.1400 H       1  UNL1        0.1501
      5 C          64.6845   90.5862   14.2441 C.ar    1  UNL1        0.0540
      6 C          65.5572   91.4496   15.1059 C.ar    1  UNL1        0.0061
      7 C          66.2087   92.6708   14.5279 C.ar    1  UNL1        0.0198
      8 C          65.9874   93.0286   13.0881 C.ar    1  UNL1        0.0892
      9 N          66.4933   94.1626   12.2464 N.ar    1  UNL1       -0.2245
     10 C          65.9332   93.9999   10.8645 C.ar    1  UNL1        0.1567
     11 N          66.1815   94.9116    9.6995 N.pl3   1  UNL1       -0.3375
     12 S          65.0811   92.7654   10.8521 S.2     1  UNL1       -0.0520
     13 C          65.1146   92.1652   12.2263 C.ar    1  UNL1        0.0498
     14 C          64.4631   90.9440   12.8043 C.ar    1  UNL1        0.0126
     15 H          66.7591   95.7016    9.8070 H       1  UNL1        0.1442
     16 H          65.7669   94.7199    8.8273 H       1  UNL1        0.1442
     17 C          64.0166   86.7970   15.2174 C.3     1  UNL1        0.1168
     18 C          62.9426   84.7878   11.9679 C.ar    1  UNL1        0.1752
     19 C          63.3439   85.9201   12.8661 C.ar    1  UNL1        0.0376
     20 C          63.6154   85.6648   14.3191 C.ar    1  UNL1        0.0037
     21 C          63.4858   84.2772   14.8737 C.ar    1  UNL1        0.0376
     22 C          63.0846   83.1448   13.9755 C.ar    1  UNL1        0.1752
     23 C          62.8130   83.4001   12.5225 C.ar    1  UNL1        0.2060
     24 C          61.5732   85.9820   10.1108 C.3     1  UNL1        0.2526
     25 O          62.6711   85.0432   10.5149 O.3     1  UNL1       -0.4683
     26 O          62.9549   81.7572   14.5301 O.3     1  UNL1       -0.4683
     27 C          61.6890   80.9806   14.3196 C.3     1  UNL1        0.2526
     28 O          62.4118   82.2679   11.6242 O.3     1  UNL1       -0.4654
     29 C          63.4286   81.6246   10.7286 C.3     1  UNL1        0.2528
@<TRIPOS>BOND
     1    24    25    1
     2    25    18    1
     3    18    19   ar
     4    19    20   ar
     5    20    17    1
     6    17     1    1
     7     1     2   am
     8     2     3    2
     9     2     5    1
    10     5     6   ar
    11     6     7   ar
    12     7     8   ar
    13     8     9   ar
    14     9    10   ar
    15    10    11    1
    16    10    12   ar
    17    12    13   ar
    18    13    14   ar
    19    20    21   ar
    20    21    22   ar
    21    22    26    1
    22    26    27    1
    23    22    23   ar
    24    23    28    1
    25    28    29    1
    26    23    18   ar
    27    14     5   ar
    28    13     8   ar
    29     1     4    1
    30    11    15    1
    31    11    16    1
@<TRIPOS>MOLECULE
*****
 29 31 0 0 0
SMALL
GASTEIGER

@<TRIPOS>ATOM
      1 N          64.3250   88.1678   14.3851 N.am    1  UNL1       -0.2969
      2 C          63.7769   87.0566   15.2305 C.2     1  UNL1        0.2461
      3 O          63.2375   87.3513   16.5988 O.2     1  UNL1       -0.2701
      4 H          64.6790   87.9745   13.4871 H       1  UNL1        0.1501
      5 C          63.7682   85.6507   14.7076 C.ar    1  UNL1        0.0540
      6 C          64.0235   84.5027   15.6386 C.ar    1  UNL1        0.0061
      7 C          64.0148   83.0968   15.1157 C.ar    1  UNL1        0.0198
      8 C          63.7507   82.8390   13.6618 C.ar    1  UNL1        0.0892
      9 N          63.6799   81.5706   12.8641 N.ar    1  UNL1       -0.2245
     10 C          63.3808   81.9349   11.4400 C.ar    1  UNL1        0.1567
     11 N          63.2234   80.9743   10.2987 N.pl3   1  UNL1       -0.3375
     12 S          63.2668   83.4283   11.3577 S.2     1  UNL1       -0.0520
     13 C          63.4955   83.9870   12.7308 C.ar    1  UNL1        0.0498
     14 C          63.5042   85.3929   13.2537 C.ar    1  UNL1        0.0126
     15 H          63.3168   80.0065   10.4533 H       1  UNL1        0.1442
     16 H          63.0266   81.3117    9.3949 H       1  UNL1        0.1442
     17 C          64.3337   89.5738   14.9080 C.3     1  UNL1        0.1168
     18 C          65.0692   92.0836   11.9232 C.ar    1  UNL1        0.1752
     19 C          64.4403   90.9870   12.7306 C.ar    1  UNL1        0.0376
     20 C          64.9626   90.6704   14.1006 C.ar    1  UNL1        0.0037
     21 C          66.1137   91.4503   14.6633 C.ar    1  UNL1        0.0376
     22 C          66.7426   92.5470   13.8558 C.ar    1  UNL1        0.1752
     23 C          66.2204   92.8636   12.4858 C.ar    1  UNL1        0.2060
     24 C          63.3929   91.6234    9.9924 C.3     1  UNL1        0.2526
     25 O          64.5470   92.4003   10.5531 O.3     1  UNL1       -0.4683
     26 O          67.8937   93.3269   14.4185 O.3     1  UNL1       -0.4683
     27 C          68.7884   92.7051   15.4494 C.3     1  UNL1        0.2526
     28 O          66.8492   93.9602   11.6784 O.3     1  UNL1       -0.4654
     29 C          66.1706   95.2933   11.5669 C.3     1  UNL1        0.2528
@<TRIPOS>BOND
     1    24    25    1
     2    25    18    1
     3    18    19   ar
     4    19    20   ar
     5    20    17    1
     6    17     1    1
     7     1     2   am
     8     2     3    2
     9     2     5    1
    10     5     6   ar
    11     6     7   ar
    12     7     8   ar
    13     8     9   ar
    14     9    10   ar
    15    10    11    1
    16    10    12   ar
    17    12    13   ar
    18    13    14   ar
    19    20    21   ar
    20    21    22   ar
    21    22    26    1
    22    26    27    1
    23    22    23   ar
    24    23    28    1
    25    28    29    1
    26    23    18   ar
    27    14     5   ar
    28    13     8   ar
    29     1     4    1
    30    11    15    1
    31    11    16    1
@<TRIPOS>MOLECULE
*****
 29 31 0 0 0
SMALL
GASTEIGER

@<TRIPOS>ATOM
      1 N          61.9413   90.6189   12.1225 N.am    1  UNL1       -0.2969
      2 C          63.0059   91.1729   11.2227 C.2     1  UNL1        0.2461
      3 O          62.7483   91.3086    9.7512 O.2     1  UNL1       -0.2701
      4 H          62.1104   90.5299   13.0882 H       1  UNL1        0.1501
      5 C          64.3282   91.5912   11.7943 C.ar    1  UNL1        0.0540
      6 C          65.3534   92.2426   10.9142 C.ar    1  UNL1        0.0061
      7 C          66.6756   92.6609   11.4859 C.ar    1  UNL1        0.0198
      8 C          66.9726   92.4278   12.9376 C.ar    1  UNL1        0.0892
      9 N          68.1785   92.7308   13.7766 N.ar    1  UNL1       -0.2245
     10 C          67.8986   92.2667   15.1752 C.ar    1  UNL1        0.1567
     11 N          68.8334   92.3736   16.3435 N.pl3   1  UNL1       -0.3375
     12 S          66.5196   91.6768   15.2006 S.2     1  UNL1       -0.0520
     13 C          65.9473   91.7764   13.8177 C.ar    1  UNL1        0.0498
     14 C          64.6252   91.3581   13.2460 C.ar    1  UNL1        0.0126
     15 H          69.7229   92.7789   16.2266 H       1  UNL1        0.1442
     16 H          68.5574   92.0384   17.2271 H       1  UNL1        0.1442
     17 C          60.6191   90.2006   11.5508 C.3     1  UNL1        0.1168
     18 C          59.8764   88.1143    8.2576 C.ar    1  UNL1        0.1752
     19 C          59.9471   89.2587    9.2246 C.ar    1  UNL1        0.0376
     20 C          60.5484   89.0561   10.5838 C.ar    1  UNL1        0.0037
     21 C          61.0789   87.7091   10.9761 C.ar    1  UNL1        0.0376
     22 C          61.0082   86.5645   10.0091 C.ar    1  UNL1        0.1752
     23 C          60.4069   86.7671    8.6498 C.ar    1  UNL1        0.2060
     24 C          59.3088   89.6728    6.2580 C.3     1  UNL1        0.2526
     25 O          59.2752   88.3169    6.8984 O.3     1  UNL1       -0.4683
     26 O          61.5387   85.2174   10.4013 O.3     1  UNL1       -0.4683
     27 C          62.3892   85.0746   11.6285 C.3     1  UNL1        0.2526
     28 O          60.3362   85.6226    7.6828 O.3     1  UNL1       -0.4654
     29 C          61.5757   85.1608    6.9754 C.3     1  UNL1        0.2528
@<TRIPOS>BOND
     1    24    25    1
     2    25    18    1
     3    18    19   ar
     4    19    20   ar
     5    20    17    1
     6    17     1    1
     7     1     2   am
     8     2     3    2
     9     2     5    1
    10     5     6   ar
    11     6     7   ar
    12     7     8   ar
    13     8     9   ar
    14     9    10   ar
    15    10    11    1
    16    10    12   ar
    17    12    13   ar
    18    13    14   ar
    19    20    21   ar
    20    21    22   ar
    21    22    26    1
    22    26    27    1
    23    22    23   ar
    24    23    28    1
    25    28    29    1
    26    23    18   ar
    27    14     5   ar
    28    13     8   ar
    29     1     4    1
    30    11    15    1
    31    11    16    1
@<TRIPOS>MOLECULE
*****
 29 31 0 0 0
SMALL
GASTEIGER

@<TRIPOS>ATOM
      1 N          61.8872   90.6549   12.0671 N.am    1  UNL1       -0.2969
      2 C          62.9823   91.1546   11.1723 C.2     1  UNL1        0.2461
      3 O          62.7682   91.2190    9.6890 O.2     1  UNL1       -0.2701
      4 H          62.0277   90.6126   13.0406 H       1  UNL1        0.1501
      5 C          64.2917   91.5899   11.7606 C.ar    1  UNL1        0.0540
      6 C          65.3053   92.2864   10.9018 C.ar    1  UNL1        0.0061
      7 C          66.6146   92.7217   11.4901 C.ar    1  UNL1        0.0198
      8 C          66.9103   92.4605   12.9373 C.ar    1  UNL1        0.0892
      9 N          68.1050   92.7714   13.7896 N.ar    1  UNL1       -0.2245
     10 C          67.8297   92.2671   15.1751 C.ar    1  UNL1        0.1567
     11 N          68.7564   92.3676   16.3504 N.pl3   1  UNL1       -0.3375
     12 S          66.4650   91.6445   15.1792 S.2     1  UNL1       -0.0520
     13 C          65.8968   91.7641   13.7961 C.ar    1  UNL1        0.0498
     14 C          64.5875   91.3288   13.2078 C.ar    1  UNL1        0.0126
     15 H          69.6366   92.7965   16.2479 H       1  UNL1        0.1442
     16 H          68.4844   92.0047   17.2242 H       1  UNL1        0.1442
     17 C          60.5778   90.2195   11.4788 C.3     1  UNL1        0.1168
     18 C          60.9946   86.5782    9.9568 C.ar    1  UNL1        0.1752
     19 C          61.0382   87.7234   10.9245 C.ar    1  UNL1        0.0376
     20 C          60.5342   89.0744   10.5111 C.ar    1  UNL1        0.0037
     21 C          59.9866   89.2801    9.1299 C.ar    1  UNL1        0.0376
     22 C          59.9429   88.1349    8.1620 C.ar    1  UNL1        0.1752
     23 C          60.4469   86.7839    8.5755 C.ar    1  UNL1        0.2060
     24 C          62.3263   85.0836   11.6128 C.3     1  UNL1        0.2526
     25 O          61.4985   85.2273   10.3702 O.3     1  UNL1       -0.4683
     26 O          59.3953   88.3406    6.7808 O.3     1  UNL1       -0.4683
     27 C          59.1556   89.7298    6.2684 C.3     1  UNL1        0.2526
     28 O          60.4033   85.6387    7.6077 O.3     1  UNL1       -0.4654
     29 C          61.6741   85.1167    7.0057 C.3     1  UNL1        0.2528
@<TRIPOS>BOND
     1    24    25    1
     2    25    18    1
     3    18    19   ar
     4    19    20   ar
     5    20    17    1
     6    17     1    1
     7     1     2   am
     8     2     3    2
     9     2     5    1
    10     5     6   ar
    11     6     7   ar
    12     7     8   ar
    13     8     9   ar
    14     9    10   ar
    15    10    11    1
    16    10    12   ar
    17    12    13   ar
    18    13    14   ar
    19    20    21   ar
    20    21    22   ar
    21    22    26    1
    22    26    27    1
    23    22    23   ar
    24    23    28    1
    25    28    29    1
    26    23    18   ar
    27    14     5   ar
    28    13     8   ar
    29     1     4    1
    30    11    15    1
    31    11    16    1
@<TRIPOS>MOLECULE
*****
 29 31 0 0 0
SMALL
GASTEIGER

@<TRIPOS>ATOM
      1 N          64.0687   88.4961   15.1207 N.am    1  UNL1       -0.2969
      2 C          63.7452   87.7196   13.8788 C.2     1  UNL1        0.2461
      3 O          63.3221   88.4396   12.6329 O.2     1  UNL1       -0.2701
      4 H          64.3464   88.0235   15.9385 H       1  UNL1        0.1501
      5 C          63.8450   86.2228   13.8829 C.ar    1  UNL1        0.0540
      6 C          64.6048   85.5247   14.9716 C.ar    1  UNL1        0.0061
      7 C          64.7044   84.0281   14.9756 C.ar    1  UNL1        0.0198
      8 C          64.0443   83.2295   13.8910 C.ar    1  UNL1        0.0892
      9 N          63.9714   81.7534   13.6341 N.ar    1  UNL1       -0.2245
     10 C          63.1665   81.5393   12.3866 C.ar    1  UNL1        0.1567
     11 N          62.8429   80.2141   11.7626 N.pl3   1  UNL1       -0.3375
     12 S          62.7420   82.8830   11.8725 S.2     1  UNL1       -0.0520
     13 C          63.2845   83.9276   12.8023 C.ar    1  UNL1        0.0498
     14 C          63.1848   85.4243   12.7982 C.ar    1  UNL1        0.0126
     15 H          63.1686   79.3824   12.1767 H       1  UNL1        0.1442
     16 H          62.3049   80.1761   10.9391 H       1  UNL1        0.1442
     17 C          63.9690   89.9929   15.1166 C.3     1  UNL1        0.1168
     18 C          66.9887   92.0350   13.5480 C.ar    1  UNL1        0.1752
     19 C          66.1725   91.2316   14.5166 C.ar    1  UNL1        0.0376
     20 C          64.7852   90.7963   14.1480 C.ar    1  UNL1        0.0037
     21 C          64.2141   91.1643   12.8107 C.ar    1  UNL1        0.0376
     22 C          65.0303   91.9678   11.8420 C.ar    1  UNL1        0.1752
     23 C          66.4176   92.4031   12.2106 C.ar    1  UNL1        0.2060
     24 C          68.7387   92.6789   15.3570 C.3     1  UNL1        0.2526
     25 O          68.3760   92.4704   13.9166 O.3     1  UNL1       -0.4683
     26 O          64.4592   92.3358   10.5047 O.3     1  UNL1       -0.4683
     27 C          63.2888   91.5761    9.9542 C.3     1  UNL1        0.2526
     28 O          67.2338   93.2065   11.2420 O.3     1  UNL1       -0.4654
     29 C          67.8710   92.5358   10.0612 C.3     1  UNL1        0.2528
@<TRIPOS>BOND
     1    24    25    1
     2    25    18    1
     3    18    19   ar
     4    19    20   ar
     5    20    17    1
     6    17     1    1
     7     1     2   am
     8     2     3    2
     9     2     5    1
    10     5     6   ar
    11     6     7   ar
    12     7     8   ar
    13     8     9   ar
    14     9    10   ar
    15    10    11    1
    16    10    12   ar
    17    12    13   ar
    18    13    14   ar
    19    20    21   ar
    20    21    22   ar
    21    22    26    1
    22    26    27    1
    23    22    23   ar
    24    23    28    1
    25    28    29    1
    26    23    18   ar
    27    14     5   ar
    28    13     8   ar
    29     1     4    1
    30    11    15    1
    31    11    16    1
@<TRIPOS>MOLECULE
*****
 29 31 0 0 0
SMALL
GASTEIGER

@<TRIPOS>ATOM
      1 N          62.5121   87.8805   11.7459 N.am    1  UNL1       -0.2969
      2 C          62.4384   86.8817   10.6293 C.2     1  UNL1        0.2461
      3 O          62.1174   87.3362    9.2363 O.2     1  UNL1       -0.2701
      4 H          62.7228   87.5821   12.6601 H       1  UNL1        0.1501
      5 C          62.6859   85.4282   10.9056 C.ar    1  UNL1        0.0540
      6 C          63.1985   84.5342    9.8157 C.ar    1  UNL1        0.0061
      7 C          63.4459   83.0808   10.0920 C.ar    1  UNL1        0.0198
      8 C          63.1807   82.5214   11.4583 C.ar    1  UNL1        0.0892
      9 N          63.3293   81.1398   12.0234 N.ar    1  UNL1       -0.2245
     10 C          62.9086   81.1800   13.4626 C.ar    1  UNL1        0.1567
     11 N          62.8983   80.0179   14.4110 N.pl3   1  UNL1       -0.3375
     12 S          62.4999   82.5864   13.7869 S.2     1  UNL1       -0.0520
     13 C          62.6681   83.4154   12.5482 C.ar    1  UNL1        0.0498
     14 C          62.4206   84.8688   12.2719 C.ar    1  UNL1        0.0126
     15 H          63.1863   79.1284   14.1027 H       1  UNL1        0.1442
     16 H          62.6035   80.1447   15.3417 H       1  UNL1        0.1442
     17 C          62.2646   89.3340   11.4696 C.3     1  UNL1        0.1168
     18 C          64.5236   91.5452   13.8690 C.ar    1  UNL1        0.1752
     19 C          63.5391   90.5147   13.4013 C.ar    1  UNL1        0.0376
     20 C          63.2491   90.3645   11.9373 C.ar    1  UNL1        0.0037
     21 C          63.9435   91.2449   10.9410 C.ar    1  UNL1        0.0376
     22 C          64.9280   92.2755   11.4086 C.ar    1  UNL1        0.1752
     23 C          65.2181   92.4256   12.8727 C.ar    1  UNL1        0.2060
     24 C          63.8582   91.1407   16.3476 C.3     1  UNL1        0.2526
     25 O          64.8136   91.6954   15.3330 O.3     1  UNL1       -0.4683
     26 O          65.6225   93.1558   10.4123 O.3     1  UNL1       -0.4683
     27 C          67.0716   92.9327   10.0962 C.3     1  UNL1        0.2526
     28 O          66.2025   93.4562   13.3404 O.3     1  UNL1       -0.4654
     29 C          67.4414   93.0323   14.0721 C.3     1  UNL1        0.2528
@<TRIPOS>BOND
     1    24    25    1
     2    25    18    1
     3    18    19   ar
     4    19    20   ar
     5    20    17    1
     6    17     1    1
     7     1     2   am
     8     2     3    2
     9     2     5    1
    10     5     6   ar
    11     6     7   ar
    12     7     8   ar
    13     8     9   ar
    14     9    10   ar
    15    10    11    1
    16    10    12   ar
    17    12    13   ar
    18    13    14   ar
    19    20    21   ar
    20    21    22   ar
    21    22    26    1
    22    26    27    1
    23    22    23   ar
    24    23    28    1
    25    28    29    1
    26    23    18   ar
    27    14     5   ar
    28    13     8   ar
    29     1     4    1
    30    11    15    1
    31    11    16    1
@<TRIPOS>MOLECULE
*****
 29 31 0 0 0
SMALL
GASTEIGER

@<TRIPOS>ATOM
      1 N          62.6601   87.9286   11.6799 N.am    1  UNL1       -0.2969
      2 C          62.3915   86.9150   10.6074 C.2     1  UNL1        0.2461
      3 O          61.8552   87.3547    9.2773 O.2     1  UNL1       -0.2701
      4 H          63.0121   87.6400   12.5529 H       1  UNL1        0.1501
      5 C          62.6591   85.4617   10.8649 C.ar    1  UNL1        0.0540
      6 C          63.1942   84.5915    9.7665 C.ar    1  UNL1        0.0061
      7 C          63.4618   83.1382   10.0240 C.ar    1  UNL1        0.0198
      8 C          63.1943   82.5551   11.3799 C.ar    1  UNL1        0.0892
      9 N          63.3597   81.1680   11.9264 N.ar    1  UNL1       -0.2245
     10 C          62.9269   81.1809   13.3625 C.ar    1  UNL1        0.1567
     11 N          62.9269   80.0052   14.2940 N.pl3   1  UNL1       -0.3375
     12 S          62.4939   82.5760   13.7036 S.2     1  UNL1       -0.0520
     13 C          62.6592   83.4253   12.4783 C.ar    1  UNL1        0.0498
     14 C          62.3916   84.8786   12.2207 C.ar    1  UNL1        0.0126
     15 H          63.2311   79.1247   13.9754 H       1  UNL1        0.1442
     16 H          62.6228   80.1140   15.2240 H       1  UNL1        0.1442
     17 C          62.3925   89.3820   11.4224 C.3     1  UNL1        0.1168
     18 C          64.9906   92.3819   11.4355 C.ar    1  UNL1        0.1752
     19 C          64.0276   91.3430   10.9422 C.ar    1  UNL1        0.0376
     20 C          63.3555   90.4208   11.9157 C.ar    1  UNL1        0.0037
     21 C          63.6465   90.5373   13.3826 C.ar    1  UNL1        0.0376
     22 C          64.6095   91.5762   13.8760 C.ar    1  UNL1        0.1752
     23 C          65.2816   92.4985   12.9024 C.ar    1  UNL1        0.2060
     24 C          67.0744   93.0393   10.0301 C.3     1  UNL1        0.2526
     25 O          65.6626   93.3041   10.4620 O.3     1  UNL1       -0.4683
     26 O          64.9005   91.6928   15.3428 O.3     1  UNL1       -0.4683
     27 C          63.8801   91.2465   16.3476 C.3     1  UNL1        0.2526
     28 O          66.2446   93.5373   13.3957 O.3     1  UNL1       -0.4654
     29 C          67.4795   93.1224   14.1392 C.3     1  UNL1        0.2528
@<TRIPOS>BOND
     1    24    25    1
     2    25    18    1
     3    18    19   ar
     4    19    20   ar
     5    20    17    1
     6    17     1    1
     7     1     2   am
     8     2     3    2
     9     2     5    1
    10     5     6   ar
    11     6     7   ar
    12     7     8   ar
    13     8     9   ar
    14     9    10   ar
    15    10    11    1
    16    10    12   ar
    17    12    13   ar
    18    13    14   ar
    19    20    21   ar
    20    21    22   ar
    21    22    26    1
    22    26    27    1
    23    22    23   ar
    24    23    28    1
    25    28    29    1
    26    23    18   ar
    27    14     5   ar
    28    13     8   ar
    29     1     4    1
    30    11    15    1
    31    11    16    1
@<TRIPOS>MOLECULE
*****
 29 31 0 0 0
SMALL
GASTEIGER

@<TRIPOS>ATOM
      1 N          63.1470   87.7532   11.4897 N.am    1  UNL1       -0.2969
      2 C          62.5963   89.0701   11.9508 C.2     1  UNL1        0.2461
      3 O          61.1183   89.2387   12.1437 O.2     1  UNL1       -0.2701
      4 H          64.1170   87.6426   11.3631 H       1  UNL1        0.1501
      5 C          63.5235   90.2183   12.2190 C.ar    1  UNL1        0.0540
      6 C          63.8034   91.2237   11.1416 C.ar    1  UNL1        0.0061
      7 C          64.7306   92.3719   11.4098 C.ar    1  UNL1        0.0198
      8 C          65.3779   92.5146   12.7554 C.ar    1  UNL1        0.0892
      9 N          66.3290   93.5343   13.3086 N.ar    1  UNL1       -0.2245
     10 C          66.6369   93.1589   14.7279 C.ar    1  UNL1        0.1567
     11 N          67.5459   93.9043   15.6596 N.pl3   1  UNL1       -0.3375
     12 S          65.8761   91.9074   15.0518 S.2     1  UNL1       -0.0520
     13 C          65.0980   91.5092   13.8328 C.ar    1  UNL1        0.0498
     14 C          64.1708   90.3611   13.5646 C.ar    1  UNL1        0.0126
     15 H          68.0034   94.7204   15.3530 H       1  UNL1        0.1442
     16 H          67.6852   93.5774   16.5778 H       1  UNL1        0.1442
     17 C          62.2198   86.6050   11.2215 C.3     1  UNL1        0.1168
     18 C          62.7796   83.5669   13.7128 C.ar    1  UNL1        0.1752
     19 C          62.4453   84.9364   13.2001 C.ar    1  UNL1        0.0376
     20 C          62.5540   85.2356   11.7343 C.ar    1  UNL1        0.0037
     21 C          62.9968   84.1654   10.7811 C.ar    1  UNL1        0.0376
     22 C          63.3311   82.7959   11.2938 C.ar    1  UNL1        0.1752
     23 C          63.2224   82.4966   12.7597 C.ar    1  UNL1        0.2060
     24 C          62.5032   84.3876   16.1623 C.3     1  UNL1        0.2526
     25 O          62.6709   83.2677   15.1786 O.3     1  UNL1       -0.4683
     26 O          63.7739   81.7256   10.3407 O.3     1  UNL1       -0.4683
     27 C          62.9486   80.4848   10.1703 C.3     1  UNL1        0.2526
     28 O          63.5567   81.1272   13.2724 O.3     1  UNL1       -0.4654
     29 C          62.4585   80.1904   13.6803 C.3     1  UNL1        0.2528
@<TRIPOS>BOND
     1    24    25    1
     2    25    18    1
     3    18    19   ar
     4    19    20   ar
     5    20    17    1
     6    17     1    1
     7     1     2   am
     8     2     3    2
     9     2     5    1
    10     5     6   ar
    11     6     7   ar
    12     7     8   ar
    13     8     9   ar
    14     9    10   ar
    15    10    11    1
    16    10    12   ar
    17    12    13   ar
    18    13    14   ar
    19    20    21   ar
    20    21    22   ar
    21    22    26    1
    22    26    27    1
    23    22    23   ar
    24    23    28    1
    25    28    29    1
    26    23    18   ar
    27    14     5   ar
    28    13     8   ar
    29     1     4    1
    30    11    15    1
    31    11    16    1
