@<TRIPOS>MOLECULE
*****
 30 33 0 0 0
SMALL
GASTEIGER

@<TRIPOS>ATOM
      1 C          62.4052   90.0697   10.1546 C.3     1  UNL1        0.0281
      2 C          62.7729   89.0496   11.1910 C.3     1  UNL1        0.1170
      3 C          62.4736   87.5989   10.9550 C.ar    1  UNL1        0.0907
      4 N          61.8293   86.8810    9.8062 N.ar    1  UNL1       -0.2267
      5 C          61.7989   85.4174   10.1328 C.ar    1  UNL1        0.1834
      6 N          62.4243   85.2306   11.4833 N.ar    1  UNL1       -0.2768
      7 C          62.8413   86.5789   11.9915 C.ar    1  UNL1        0.0610
      8 C          63.5084   87.0096   13.2641 C.3     1  UNL1        0.0670
      9 C          63.8077   88.4603   13.5001 C.3     1  UNL1        0.1003
     10 N          63.4400   89.4803   12.4637 N.am    1  UNL1       -0.2720
     11 C          63.7394   90.9311   12.6998 C.2     1  UNL1        0.2501
     12 O          63.3716   91.9511   11.6633 O.2     1  UNL1       -0.2699
     13 C          62.6016   83.9248   12.1999 C.ar    1  UNL1        0.1488
     14 C          62.9534   82.6876   11.4282 C.ar    1  UNL1        0.0398
     15 C          63.1307   81.3817   12.1448 C.ar    1  UNL1        0.0343
     16 C          62.9562   81.3131   13.6329 C.ar    1  UNL1        0.1593
     17 F          63.1335   80.0073   14.3495 F       1  UNL1       -0.2025
     18 C          62.6044   82.5504   14.4046 C.ar    1  UNL1        0.1300
     19 N          62.4271   83.8562   13.6882 N.ar    1  UNL1       -0.2240
     20 C          64.4065   91.3618   13.9724 C.ar    1  UNL1        0.0641
     21 C          63.6974   91.1969   15.2839 C.ar    1  UNL1        0.0054
     22 C          64.3646   91.6276   16.5565 C.ar    1  UNL1        0.0001
     23 C          65.7406   92.2233   16.5176 C.ar    1  UNL1        0.0047
     24 C          66.4497   92.3883   15.2060 C.ar    1  UNL1        0.0821
     25 C          65.7826   91.9575   13.9334 C.ar    1  UNL1        0.0659
     26 CL         66.4916   92.1225   12.6219 Cl      1  UNL1       -0.0822
     27 C          67.8258   92.9840   15.1671 C.3     1  UNL1        0.4194
     28 F          69.2019   93.5797   15.1282 F       1  UNL1       -0.1658
     29 F          67.2455   94.2956   14.7278 F       1  UNL1       -0.1658
     30 F          68.4060   91.6723   15.6063 F       1  UNL1       -0.1658
@<TRIPOS>BOND
     1     2     1    1
     2     2     3    1
     3     3     4   ar
     4     4     5   ar
     5     5     6   ar
     6     6    13    1
     7    13    14   ar
     8    14    15   ar
     9    15    16   ar
    10    16    17    1
    11    16    18   ar
    12    18    19   ar
    13     6     7   ar
    14     7     8    1
    15     8     9    1
    16     9    10    1
    17    10    11   am
    18    11    12    2
    19    11    20    1
    20    20    21   ar
    21    21    22   ar
    22    22    23   ar
    23    23    24   ar
    24    24    27    1
    25    27    28    1
    26    27    29    1
    27    27    30    1
    28    24    25   ar
    29    25    26    1
    30    10     2    1
    31    25    20   ar
    32     7     3   ar
    33    19    13   ar
@<TRIPOS>MOLECULE
*****
 30 33 0 0 0
SMALL
GASTEIGER

@<TRIPOS>ATOM
      1 C          62.8443   89.4732   13.8658 C.3     1  UNL1        0.0281
      2 C          63.2281   90.1853   12.6026 C.3     1  UNL1        0.1170
      3 C          64.2313   91.2996   12.6449 C.ar    1  UNL1        0.0907
      4 N          65.0038   91.9123   13.7753 N.ar    1  UNL1       -0.2267
      5 C          65.8649   93.0030   13.2107 C.ar    1  UNL1        0.1834
      6 N          65.6247   93.0644   11.7313 N.ar    1  UNL1       -0.2768
      7 C          64.6151   92.0116   11.3816 C.ar    1  UNL1        0.0610
      8 C          63.9956   91.6093   10.0761 C.3     1  UNL1        0.0670
      9 C          62.9924   90.4950   10.0338 C.3     1  UNL1        0.1003
     10 N          62.6087   89.7830   11.2970 N.am    1  UNL1       -0.2720
     11 C          61.6054   88.6686   11.2547 C.2     1  UNL1        0.2501
     12 O          61.2216   87.9566   12.5179 O.2     1  UNL1       -0.2699
     13 C          66.2792   94.0122   10.7704 C.ar    1  UNL1        0.1488
     14 C          67.2176   93.4895    9.7234 C.ar    1  UNL1        0.0398
     15 C          67.8722   94.4373    8.7624 C.ar    1  UNL1        0.0343
     16 C          67.5883   95.9076    8.8486 C.ar    1  UNL1        0.1593
     17 F          68.2429   96.8554    7.8877 F       1  UNL1       -0.2025
     18 C          66.6499   96.4302    9.8957 C.ar    1  UNL1        0.1300
     19 N          65.9954   95.4826   10.8566 N.ar    1  UNL1       -0.2240
     20 C          60.9859   88.2663    9.9492 C.ar    1  UNL1        0.0641
     21 C          59.9388   89.1345    9.3168 C.ar    1  UNL1        0.0054
     22 C          59.3193   88.7321    8.0112 C.ar    1  UNL1        0.0001
     23 C          59.7469   87.4617    7.3381 C.ar    1  UNL1        0.0047
     24 C          60.7941   86.5935    7.9705 C.ar    1  UNL1        0.0821
     25 C          61.4136   86.9958    9.2761 C.ar    1  UNL1        0.0659
     26 CL         62.4607   86.1277    9.9084 Cl      1  UNL1       -0.0822
     27 C          61.2217   85.3231    7.2974 C.3     1  UNL1        0.4194
     28 F          61.6494   84.0527    6.6242 F       1  UNL1       -0.1658
     29 F          62.6587   85.6774    7.5415 F       1  UNL1       -0.1658
     30 F          59.7848   84.9688    7.0533 F       1  UNL1       -0.1658
@<TRIPOS>BOND
     1     2     1    1
     2     2     3    1
     3     3     4   ar
     4     4     5   ar
     5     5     6   ar
     6     6    13    1
     7    13    14   ar
     8    14    15   ar
     9    15    16   ar
    10    16    17    1
    11    16    18   ar
    12    18    19   ar
    13     6     7   ar
    14     7     8    1
    15     8     9    1
    16     9    10    1
    17    10    11   am
    18    11    12    2
    19    11    20    1
    20    20    21   ar
    21    21    22   ar
    22    22    23   ar
    23    23    24   ar
    24    24    27    1
    25    27    28    1
    26    27    29    1
    27    27    30    1
    28    24    25   ar
    29    25    26    1
    30    10     2    1
    31    25    20   ar
    32     7     3   ar
    33    19    13   ar
@<TRIPOS>MOLECULE
*****
 30 33 0 0 0
SMALL
GASTEIGER

@<TRIPOS>ATOM
      1 C          63.4577   89.3525   16.9055 C.3     1  UNL1        0.0281
      2 C          63.4705   88.4457   15.7107 C.3     1  UNL1        0.1170
      3 C          63.3211   86.9642   15.8918 C.ar    1  UNL1        0.0907
      4 N          63.1460   86.1153   17.1160 N.ar    1  UNL1       -0.2267
      5 C          63.0506   84.6840   16.6777 C.ar    1  UNL1        0.1834
      6 N          63.1668   84.6482   15.1826 N.ar    1  UNL1       -0.2768
      7 C          63.3339   86.0575   14.6969 C.ar    1  UNL1        0.0610
      8 C          63.4962   86.6323   13.3209 C.3     1  UNL1        0.0670
      9 C          63.6456   88.1138   13.1398 C.3     1  UNL1        0.1003
     10 N          63.6328   89.0204   14.3346 N.am    1  UNL1       -0.2720
     11 C          63.7822   90.5020   14.1535 C.2     1  UNL1        0.2501
     12 O          63.7694   91.4087   15.3484 O.2     1  UNL1       -0.2699
     13 C          63.1233   83.4190   14.3241 C.ar    1  UNL1        0.1488
     14 C          62.0145   82.4234   14.4952 C.ar    1  UNL1        0.0398
     15 C          61.9710   81.1941   13.6367 C.ar    1  UNL1        0.0343
     16 C          63.0364   80.9604   12.6071 C.ar    1  UNL1        0.1593
     17 F          62.9930   79.7312   11.7485 F       1  UNL1       -0.2025
     18 C          64.1454   81.9560   12.4360 C.ar    1  UNL1        0.1300
     19 N          64.1888   83.1852   13.2945 N.ar    1  UNL1       -0.2240
     20 C          63.9445   91.0768   12.7776 C.ar    1  UNL1        0.0641
     21 C          62.9434   90.7555   11.7077 C.ar    1  UNL1        0.0054
     22 C          63.1057   91.3304   10.3317 C.ar    1  UNL1        0.0001
     23 C          64.2690   92.2264   10.0256 C.ar    1  UNL1        0.0047
     24 C          65.2701   92.5477   11.0956 C.ar    1  UNL1        0.0821
     25 C          65.1079   91.9729   12.4715 C.ar    1  UNL1        0.0659
     26 CL         66.1089   92.2942   13.5414 Cl      1  UNL1       -0.0822
     27 C          66.4335   93.4438   10.7895 C.3     1  UNL1        0.4194
     28 F          67.5968   94.3399   10.4834 F       1  UNL1       -0.1658
     29 F          65.6588   94.6233   11.2981 F       1  UNL1       -0.1658
     30 F          67.2081   92.2643   10.2808 F       1  UNL1       -0.1658
@<TRIPOS>BOND
     1     2     1    1
     2     2     3    1
     3     3     4   ar
     4     4     5   ar
     5     5     6   ar
     6     6    13    1
     7    13    14   ar
     8    14    15   ar
     9    15    16   ar
    10    16    17    1
    11    16    18   ar
    12    18    19   ar
    13     6     7   ar
    14     7     8    1
    15     8     9    1
    16     9    10    1
    17    10    11   am
    18    11    12    2
    19    11    20    1
    20    20    21   ar
    21    21    22   ar
    22    22    23   ar
    23    23    24   ar
    24    24    27    1
    25    27    28    1
    26    27    29    1
    27    27    30    1
    28    24    25   ar
    29    25    26    1
    30    10     2    1
    31    25    20   ar
    32     7     3   ar
    33    19    13   ar
@<TRIPOS>MOLECULE
*****
 30 33 0 0 0
SMALL
GASTEIGER

@<TRIPOS>ATOM
      1 C          63.2905   89.5391   14.1695 C.3     1  UNL1        0.0281
      2 C          63.6387   90.1505   12.8447 C.3     1  UNL1        0.1170
      3 C          64.4892   91.3847   12.7886 C.ar    1  UNL1        0.0907
      4 N          65.1245   92.2155   13.8638 N.ar    1  UNL1       -0.2267
      5 C          65.8653   93.3404   13.2035 C.ar    1  UNL1        0.1834
      6 N          65.6879   93.2048   11.7202 N.ar    1  UNL1       -0.2768
      7 C          64.8374   91.9961   11.4638 C.ar    1  UNL1        0.0610
      8 C          64.3350   91.3732   10.1951 C.3     1  UNL1        0.0670
      9 C          63.4845   90.1389   10.2512 C.3     1  UNL1        0.1003
     10 N          63.1363   89.5276   11.5759 N.am    1  UNL1       -0.2720
     11 C          62.2857   88.2932   11.6320 C.2     1  UNL1        0.2501
     12 O          61.9376   87.6819   12.9568 O.2     1  UNL1       -0.2699
     13 C          66.2604   94.1175   10.6767 C.ar    1  UNL1        0.1488
     14 C          67.2419   93.5877    9.6738 C.ar    1  UNL1        0.0398
     15 C          67.8145   94.5005    8.6301 C.ar    1  UNL1        0.0343
     16 C          67.4055   95.9430    8.5895 C.ar    1  UNL1        0.1593
     17 F          67.9780   96.8558    7.5459 F       1  UNL1       -0.2025
     18 C          66.4239   96.4729    9.5925 C.ar    1  UNL1        0.1300
     19 N          65.8514   95.5602   10.6361 N.ar    1  UNL1       -0.2240
     20 C          61.7833   87.6703   10.3633 C.ar    1  UNL1        0.0641
     21 C          62.3541   86.3661    9.8909 C.ar    1  UNL1        0.0054
     22 C          61.8517   85.7432    8.6222 C.ar    1  UNL1        0.0001
     23 C          60.7785   86.4245    7.8260 C.ar    1  UNL1        0.0047
     24 C          60.2077   87.7288    8.2984 C.ar    1  UNL1        0.0821
     25 C          60.7101   88.3517    9.5671 C.ar    1  UNL1        0.0659
     26 CL         60.1393   89.6559   10.0395 Cl      1  UNL1       -0.0822
     27 C          59.1345   88.4101    7.5021 C.3     1  UNL1        0.4194
     28 F          58.0613   89.0914    6.7058 F       1  UNL1       -0.1658
     29 F          60.0858   89.5217    7.1711 F       1  UNL1       -0.1658
     30 F          58.1832   87.2986    7.8331 F       1  UNL1       -0.1658
@<TRIPOS>BOND
     1     2     1    1
     2     2     3    1
     3     3     4   ar
     4     4     5   ar
     5     5     6   ar
     6     6    13    1
     7    13    14   ar
     8    14    15   ar
     9    15    16   ar
    10    16    17    1
    11    16    18   ar
    12    18    19   ar
    13     6     7   ar
    14     7     8    1
    15     8     9    1
    16     9    10    1
    17    10    11   am
    18    11    12    2
    19    11    20    1
    20    20    21   ar
    21    21    22   ar
    22    22    23   ar
    23    23    24   ar
    24    24    27    1
    25    27    28    1
    26    27    29    1
    27    27    30    1
    28    24    25   ar
    29    25    26    1
    30    10     2    1
    31    25    20   ar
    32     7     3   ar
    33    19    13   ar
@<TRIPOS>MOLECULE
*****
 30 33 0 0 0
SMALL
GASTEIGER

@<TRIPOS>ATOM
      1 C          64.2257   90.5350   15.5699 C.3     1  UNL1        0.0281
      2 C          64.4274   90.9366   14.1388 C.3     1  UNL1        0.1170
      3 C          65.2041   92.1770   13.8101 C.ar    1  UNL1        0.0907
      4 N          65.8839   93.1947   14.6773 N.ar    1  UNL1       -0.2267
      5 C          66.5058   94.2252   13.7821 C.ar    1  UNL1        0.1834
      6 N          66.2102   93.8444   12.3617 N.ar    1  UNL1       -0.2768
      7 C          65.4057   92.5785   12.3790 C.ar    1  UNL1        0.0610
      8 C          64.8306   91.7395   11.2765 C.3     1  UNL1        0.0670
      9 C          64.0540   90.4991   11.6052 C.3     1  UNL1        0.1003
     10 N          63.8524   90.0976   13.0362 N.am    1  UNL1       -0.2720
     11 C          63.0756   88.8571   13.3649 C.2     1  UNL1        0.2501
     12 O          62.8740   88.4556   14.7960 O.2     1  UNL1       -0.2699
     13 C          66.6432   94.5973   11.1387 C.ar    1  UNL1        0.1488
     14 C          66.2862   96.0459   10.9843 C.ar    1  UNL1        0.0398
     15 C          66.7191   96.7989    9.7612 C.ar    1  UNL1        0.0343
     16 C          67.5090   96.1031    8.6927 C.ar    1  UNL1        0.1593
     17 F          67.9419   96.8560    7.4697 F       1  UNL1       -0.2025
     18 C          67.8660   94.6544    8.8471 C.ar    1  UNL1        0.1300
     19 N          67.4331   93.9014   10.0700 N.ar    1  UNL1       -0.2240
     20 C          62.5006   88.0181   12.2624 C.ar    1  UNL1        0.0641
     21 C          61.5082   88.6123   11.3074 C.ar    1  UNL1        0.0054
     22 C          60.9332   87.7733   10.2049 C.ar    1  UNL1        0.0001
     23 C          61.3505   86.3402   10.0575 C.ar    1  UNL1        0.0047
     24 C          62.3430   85.7459   11.0126 C.ar    1  UNL1        0.0821
     25 C          62.9180   86.5849   12.1150 C.ar    1  UNL1        0.0659
     26 CL         63.9104   85.9906   13.0700 Cl      1  UNL1       -0.0822
     27 C          62.7603   84.3127   10.8651 C.3     1  UNL1        0.4194
     28 F          63.1777   82.8795   10.7176 F       1  UNL1       -0.1658
     29 F          63.4677   84.6503    9.5861 F       1  UNL1       -0.1658
     30 F          62.0530   83.9751   12.1440 F       1  UNL1       -0.1658
@<TRIPOS>BOND
     1     2     1    1
     2     2     3    1
     3     3     4   ar
     4     4     5   ar
     5     5     6   ar
     6     6    13    1
     7    13    14   ar
     8    14    15   ar
     9    15    16   ar
    10    16    17    1
    11    16    18   ar
    12    18    19   ar
    13     6     7   ar
    14     7     8    1
    15     8     9    1
    16     9    10    1
    17    10    11   am
    18    11    12    2
    19    11    20    1
    20    20    21   ar
    21    21    22   ar
    22    22    23   ar
    23    23    24   ar
    24    24    27    1
    25    27    28    1
    26    27    29    1
    27    27    30    1
    28    24    25   ar
    29    25    26    1
    30    10     2    1
    31    25    20   ar
    32     7     3   ar
    33    19    13   ar
@<TRIPOS>MOLECULE
*****
 30 33 0 0 0
SMALL
GASTEIGER

@<TRIPOS>ATOM
      1 C          62.5963   87.2524   17.7326 C.3     1  UNL1        0.0281
      2 C          63.2387   87.6906   16.4499 C.3     1  UNL1        0.1170
      3 C          63.5212   89.1442   16.2108 C.ar    1  UNL1        0.0907
      4 N          63.2802   90.3646   17.0491 N.ar    1  UNL1       -0.2267
      5 C          63.7737   91.5569   16.2844 C.ar    1  UNL1        0.1834
      6 N          64.3197   91.0735   14.9736 N.ar    1  UNL1       -0.2768
      7 C          64.1636   89.5823   14.9281 C.ar    1  UNL1        0.0610
      8 C          64.5235   88.5669   13.8845 C.3     1  UNL1        0.0670
      9 C          64.2410   87.1132   14.1235 C.3     1  UNL1        0.1003
     10 N          63.5986   86.6751   15.4062 N.am    1  UNL1       -0.2720
     11 C          63.3160   85.2214   15.6452 C.2     1  UNL1        0.2501
     12 O          62.6736   84.7833   16.9279 O.2     1  UNL1       -0.2699
     13 C          64.9169   91.9307   13.8972 C.ar    1  UNL1        0.1488
     14 C          64.5459   91.6998   12.4623 C.ar    1  UNL1        0.0398
     15 C          65.1430   92.5570   11.3859 C.ar    1  UNL1        0.0343
     16 C          66.1111   93.6452   11.7444 C.ar    1  UNL1        0.1593
     17 F          66.7083   94.5024   10.6681 F       1  UNL1       -0.2025
     18 C          66.4821   93.8761   13.1794 C.ar    1  UNL1        0.1300
     19 N          65.8850   93.0189   14.2558 N.ar    1  UNL1       -0.2240
     20 C          63.6759   84.2059   14.6015 C.ar    1  UNL1        0.0641
     21 C          64.8476   84.4442   13.6959 C.ar    1  UNL1        0.0054
     22 C          65.2074   83.4286   12.6522 C.ar    1  UNL1        0.0001
     23 C          64.3956   82.1749   12.5142 C.ar    1  UNL1        0.0047
     24 C          63.2238   81.9367   13.4200 C.ar    1  UNL1        0.0821
     25 C          62.8640   82.9522   14.4636 C.ar    1  UNL1        0.0659
     26 CL         61.6922   82.7139   15.3693 Cl      1  UNL1       -0.0822
     27 C          62.4120   80.6829   13.2820 C.3     1  UNL1        0.4194
     28 F          61.6001   79.4292   13.1440 F       1  UNL1       -0.1658
     29 F          61.4639   81.3977   12.3653 F       1  UNL1       -0.1658
     30 F          63.3600   79.9682   14.1987 F       1  UNL1       -0.1658
@<TRIPOS>BOND
     1     2     1    1
     2     2     3    1
     3     3     4   ar
     4     4     5   ar
     5     5     6   ar
     6     6    13    1
     7    13    14   ar
     8    14    15   ar
     9    15    16   ar
    10    16    17    1
    11    16    18   ar
    12    18    19   ar
    13     6     7   ar
    14     7     8    1
    15     8     9    1
    16     9    10    1
    17    10    11   am
    18    11    12    2
    19    11    20    1
    20    20    21   ar
    21    21    22   ar
    22    22    23   ar
    23    23    24   ar
    24    24    27    1
    25    27    28    1
    26    27    29    1
    27    27    30    1
    28    24    25   ar
    29    25    26    1
    30    10     2    1
    31    25    20   ar
    32     7     3   ar
    33    19    13   ar
@<TRIPOS>MOLECULE
*****
 30 33 0 0 0
SMALL
GASTEIGER

@<TRIPOS>ATOM
      1 C          62.4129   86.9458   17.5948 C.3     1  UNL1        0.0281
      2 C          63.1027   87.4513   16.3624 C.3     1  UNL1        0.1170
      3 C          63.4268   88.9098   16.2292 C.ar    1  UNL1        0.0907
      4 N          63.1909   90.0777   17.1404 N.ar    1  UNL1       -0.2267
      5 C          63.7349   91.3050   16.4711 C.ar    1  UNL1        0.1834
      6 N          64.3069   90.8955   15.1463 N.ar    1  UNL1       -0.2768
      7 C          64.1166   89.4152   14.9968 C.ar    1  UNL1        0.0610
      8 C          64.4821   88.4622   13.8976 C.3     1  UNL1        0.0670
      9 C          64.1580   87.0037   14.0309 C.3     1  UNL1        0.1003
     10 N          63.4683   86.4983   15.2632 N.am    1  UNL1       -0.2720
     11 C          63.1441   85.0397   15.3965 C.2     1  UNL1        0.2501
     12 O          62.4544   84.5343   16.6289 O.2     1  UNL1       -0.2699
     13 C          64.9555   91.8065   14.1466 C.ar    1  UNL1        0.1488
     14 C          64.6455   91.6597   12.6864 C.ar    1  UNL1        0.0398
     15 C          65.2940   92.5707   11.6865 C.ar    1  UNL1        0.0343
     16 C          66.2526   93.6285   12.1470 C.ar    1  UNL1        0.1593
     17 F          66.9012   94.5394   11.1473 F       1  UNL1       -0.2025
     18 C          66.5627   93.7753   13.6073 C.ar    1  UNL1        0.1300
     19 N          65.9141   92.8644   14.6071 N.ar    1  UNL1       -0.2240
     20 C          63.5097   84.0867   14.2974 C.ar    1  UNL1        0.0641
     21 C          64.1218   82.7582   14.6294 C.ar    1  UNL1        0.0054
     22 C          64.4874   81.8051   13.5302 C.ar    1  UNL1        0.0001
     23 C          64.2408   82.1807   12.0991 C.ar    1  UNL1        0.0047
     24 C          63.6287   83.5093   11.7671 C.ar    1  UNL1        0.0821
     25 C          63.2631   84.4623   12.8662 C.ar    1  UNL1        0.0659
     26 CL         62.6510   85.7909   12.5342 Cl      1  UNL1       -0.0822
     27 C          63.3821   83.8848   10.3359 C.3     1  UNL1        0.4194
     28 F          63.1356   84.2603    8.9048 F       1  UNL1       -0.1658
     29 F          61.9863   84.3071   10.6872 F       1  UNL1       -0.1658
     30 F          64.7779   83.4626    9.9847 F       1  UNL1       -0.1658
@<TRIPOS>BOND
     1     2     1    1
     2     2     3    1
     3     3     4   ar
     4     4     5   ar
     5     5     6   ar
     6     6    13    1
     7    13    14   ar
     8    14    15   ar
     9    15    16   ar
    10    16    17    1
    11    16    18   ar
    12    18    19   ar
    13     6     7   ar
    14     7     8    1
    15     8     9    1
    16     9    10    1
    17    10    11   am
    18    11    12    2
    19    11    20    1
    20    20    21   ar
    21    21    22   ar
    22    22    23   ar
    23    23    24   ar
    24    24    27    1
    25    27    28    1
    26    27    29    1
    27    27    30    1
    28    24    25   ar
    29    25    26    1
    30    10     2    1
    31    25    20   ar
    32     7     3   ar
    33    19    13   ar
@<TRIPOS>MOLECULE
*****
 30 33 0 0 0
SMALL
GASTEIGER

@<TRIPOS>ATOM
      1 C          62.9221   88.4203   17.4446 C.3     1  UNL1        0.0281
      2 C          63.2626   87.8154   16.1148 C.3     1  UNL1        0.1170
      3 C          62.9164   86.3837   15.8312 C.ar    1  UNL1        0.0907
      4 N          62.2439   85.3305   16.6610 N.ar    1  UNL1       -0.2267
      5 C          62.1688   84.0748   15.8440 C.ar    1  UNL1        0.1834
      6 N          62.7949   84.3519   14.5094 N.ar    1  UNL1       -0.2768
      7 C          63.2569   85.7789   14.5015 C.ar    1  UNL1        0.0610
      8 C          63.9437   86.6058   13.4553 C.3     1  UNL1        0.0670
      9 C          64.2900   88.0375   13.7388 C.3     1  UNL1        0.1003
     10 N          63.9495   88.6423   15.0685 N.am    1  UNL1       -0.2720
     11 C          64.2957   90.0740   15.3521 C.2     1  UNL1        0.2501
     12 O          63.9552   90.6788   16.6818 O.2     1  UNL1       -0.2699
     13 C          62.9344   83.3737   13.3808 C.ar    1  UNL1        0.1488
     14 C          63.3278   83.8549   12.0156 C.ar    1  UNL1        0.0398
     15 C          63.4673   82.8767   10.8869 C.ar    1  UNL1        0.0343
     16 C          63.2136   81.4174   11.1236 C.ar    1  UNL1        0.1593
     17 F          63.3531   80.4393    9.9950 F       1  UNL1       -0.2025
     18 C          62.8202   80.9363   12.4888 C.ar    1  UNL1        0.1300
     19 N          62.6807   81.9144   13.6174 N.ar    1  UNL1       -0.2240
     20 C          64.9826   90.9009   14.3059 C.ar    1  UNL1        0.0641
     21 C          64.2016   91.4408   13.1446 C.ar    1  UNL1        0.0054
     22 C          64.8885   92.2677   12.0984 C.ar    1  UNL1        0.0001
     23 C          66.3562   92.5546   12.2135 C.ar    1  UNL1        0.0047
     24 C          67.1372   92.0146   13.3748 C.ar    1  UNL1        0.0821
     25 C          66.4504   91.1878   14.4210 C.ar    1  UNL1        0.0659
     26 CL         67.2314   90.6478   15.5822 Cl      1  UNL1       -0.0822
     27 C          68.6050   92.3016   13.4898 C.3     1  UNL1        0.4194
     28 F          70.0728   92.5885   13.6048 F       1  UNL1       -0.1658
     29 F          68.8838   91.3142   12.3955 F       1  UNL1       -0.1658
     30 F          68.3263   93.2889   14.5841 F       1  UNL1       -0.1658
@<TRIPOS>BOND
     1     2     1    1
     2     2     3    1
     3     3     4   ar
     4     4     5   ar
     5     5     6   ar
     6     6    13    1
     7    13    14   ar
     8    14    15   ar
     9    15    16   ar
    10    16    17    1
    11    16    18   ar
    12    18    19   ar
    13     6     7   ar
    14     7     8    1
    15     8     9    1
    16     9    10    1
    17    10    11   am
    18    11    12    2
    19    11    20    1
    20    20    21   ar
    21    21    22   ar
    22    22    23   ar
    23    23    24   ar
    24    24    27    1
    25    27    28    1
    26    27    29    1
    27    27    30    1
    28    24    25   ar
    29    25    26    1
    30    10     2    1
    31    25    20   ar
    32     7     3   ar
    33    19    13   ar
@<TRIPOS>MOLECULE
*****
 30 33 0 0 0
SMALL
GASTEIGER

@<TRIPOS>ATOM
      1 C          62.9098   87.8863   17.5422 C.3     1  UNL1        0.0281
      2 C          63.2323   87.3363   16.1844 C.3     1  UNL1        0.1170
      3 C          62.9219   85.9046   15.8620 C.ar    1  UNL1        0.0907
      4 N          62.3043   84.8043   16.6731 N.ar    1  UNL1       -0.2267
      5 C          62.2451   83.5744   15.8165 C.ar    1  UNL1        0.1834
      6 N          62.8260   83.9145   14.4761 N.ar    1  UNL1       -0.2768
      7 C          63.2443   85.3547   14.5042 C.ar    1  UNL1        0.0610
      8 C          63.8771   86.2365   13.4688 C.3     1  UNL1        0.0670
      9 C          64.1875   87.6682   13.7912 C.3     1  UNL1        0.1003
     10 N          63.8651   88.2181   15.1489 N.am    1  UNL1       -0.2720
     11 C          64.1755   89.6498   15.4714 C.2     1  UNL1        0.2501
     12 O          63.8531   90.1997   16.8292 O.2     1  UNL1       -0.2699
     13 C          62.9643   82.9787   13.3119 C.ar    1  UNL1        0.1488
     14 C          63.5243   83.4761   12.0123 C.ar    1  UNL1        0.0398
     15 C          63.6627   82.5404   10.8481 C.ar    1  UNL1        0.0343
     16 C          63.2411   81.1073   10.9836 C.ar    1  UNL1        0.1593
     17 F          63.3794   80.1715    9.8195 F       1  UNL1       -0.2025
     18 C          62.6811   80.6099   12.2833 C.ar    1  UNL1        0.1300
     19 N          62.5427   81.5456   13.4475 N.ar    1  UNL1       -0.2240
     20 C          64.8084   90.5316   14.4360 C.ar    1  UNL1        0.0641
     21 C          66.1500   91.1499   14.6961 C.ar    1  UNL1        0.0054
     22 C          66.7828   92.0317   13.6606 C.ar    1  UNL1        0.0001
     23 C          66.0740   92.2951   12.3652 C.ar    1  UNL1        0.0047
     24 C          64.7323   91.6767   12.1051 C.ar    1  UNL1        0.0821
     25 C          64.0995   90.7949   13.1405 C.ar    1  UNL1        0.0659
     26 CL         62.7579   90.1766   12.8804 Cl      1  UNL1       -0.0822
     27 C          64.0235   91.9401   10.8097 C.3     1  UNL1        0.4194
     28 F          63.3147   92.2035    9.5142 F       1  UNL1       -0.1658
     29 F          64.4838   93.3672   10.8480 F       1  UNL1       -0.1658
     30 F          63.5633   90.5129   10.7713 F       1  UNL1       -0.1658
@<TRIPOS>BOND
     1     2     1    1
     2     2     3    1
     3     3     4   ar
     4     4     5   ar
     5     5     6   ar
     6     6    13    1
     7    13    14   ar
     8    14    15   ar
     9    15    16   ar
    10    16    17    1
    11    16    18   ar
    12    18    19   ar
    13     6     7   ar
    14     7     8    1
    15     8     9    1
    16     9    10    1
    17    10    11   am
    18    11    12    2
    19    11    20    1
    20    20    21   ar
    21    21    22   ar
    22    22    23   ar
    23    23    24   ar
    24    24    27    1
    25    27    28    1
    26    27    29    1
    27    27    30    1
    28    24    25   ar
    29    25    26    1
    30    10     2    1
    31    25    20   ar
    32     7     3   ar
    33    19    13   ar
