@<TRIPOS>MOLECULE
*****
 31 33 0 0 0
SMALL
GASTEIGER

@<TRIPOS>ATOM
      1 C          61.4739   87.8690   11.0616 C.2     1  UNL1        0.1999
      2 O          60.0224   87.8763   11.4398 O.2     1  UNL1       -0.2864
      3 N          63.4642   88.7253   13.5019 N.pl3   1  UNL1       -0.3425
      4 C          63.1912   89.5273   12.2640 C.ar    1  UNL1        0.1314
      5 C          62.2764   89.1337   11.1424 C.ar    1  UNL1        0.0909
      6 C          62.3049   90.2269   10.1156 C.ar    1  UNL1        0.1265
      7 N          63.2373   91.2961   10.6027 N.ar    1  UNL1       -0.1622
      8 N          63.7851   90.8637   11.9306 N.ar    1  UNL1       -0.2164
      9 H          63.0238   87.8544   13.6312 H       1  UNL1        0.1437
     10 H          64.0838   89.0699   14.1850 H       1  UNL1        0.1437
     11 C          64.7563   91.6328   12.7764 C.ar    1  UNL1        0.0843
     12 C          65.0002   91.2234   14.1987 C.ar    1  UNL1        0.0215
     13 C          65.9714   91.9924   15.0446 C.ar    1  UNL1        0.0312
     14 C          66.6986   93.1709   14.4680 C.ar    1  UNL1        0.1402
     15 F          67.6698   93.9399   15.3139 F       1  UNL1       -0.2042
     16 C          66.4547   93.5803   13.0458 C.ar    1  UNL1        0.0312
     17 C          65.4835   92.8113   12.2000 C.ar    1  UNL1        0.0215
     18 C          62.1230   86.5970   10.6026 C.ar    1  UNL1        0.0421
     19 C          62.4704   86.4121    9.1551 C.ar    1  UNL1        0.0034
     20 C          63.1195   85.1401    8.6962 C.ar    1  UNL1        0.0032
     21 C          63.4211   84.0529    9.6847 C.ar    1  UNL1        0.0369
     22 C          63.0736   84.2377   11.1321 C.ar    1  UNL1        0.1388
     23 C          62.4246   85.5098   11.5910 C.ar    1  UNL1        0.0401
     24 O          63.3752   83.1506   12.1205 O.3     1  UNL1       -0.4728
     25 C          64.2271   83.4427   13.3200 C.3     1  UNL1        0.2369
     26 C          63.5998   83.5438   14.6788 C.3     1  UNL1        0.1835
     27 O          62.7945   82.4000   15.2201 O.3     1  UNL1       -0.3784
     28 H          62.4628   82.6273   16.1029 H       1  UNL1        0.2106
     29 C          63.7779   84.7889   15.4963 C.3     1  UNL1        0.1702
     30 O          63.7033   86.1350   14.8386 O.3     1  UNL1       -0.3794
     31 H          64.4470   86.2364   14.2243 H       1  UNL1        0.2105
@<TRIPOS>BOND
     1     3     4    1
     2     4     5   ar
     3     5     1    1
     4     1     2    2
     5     1    18    1
     6    18    19   ar
     7    19    20   ar
     8    20    21   ar
     9    21    22   ar
    10    22    24    1
    11    24    25    1
    12    25    26    1
    13    26    27    1
    14    26    29    1
    15    29    30    1
    16    22    23   ar
    17     5     6   ar
    18     6     7   ar
    19     7     8   ar
    20     8    11    1
    21    11    12   ar
    22    12    13   ar
    23    13    14   ar
    24    14    15    1
    25    14    16   ar
    26    16    17   ar
    27     8     4   ar
    28    17    11   ar
    29    23    18   ar
    30     3     9    1
    31     3    10    1
    32    27    28    1
    33    30    31    1
@<TRIPOS>MOLECULE
*****
 31 33 0 0 0
SMALL
GASTEIGER

@<TRIPOS>ATOM
      1 C          60.9852   89.4403   11.4678 C.2     1  UNL1        0.1999
      2 O          60.0221   89.5225   12.6148 O.2     1  UNL1       -0.2864
      3 N          62.7387   90.1725   14.1208 N.pl3   1  UNL1       -0.3425
      4 C          63.0582   90.5794   12.7128 C.ar    1  UNL1        0.1314
      5 C          62.2522   90.2429   11.4934 C.ar    1  UNL1        0.0909
      6 C          62.9356   90.8497   10.3040 C.ar    1  UNL1        0.1265
      7 N          64.1640   91.5613   10.7883 N.ar    1  UNL1       -0.1622
      8 N          64.2397   91.3943   12.2771 N.ar    1  UNL1       -0.2164
      9 H          61.9357   89.6345   14.3075 H       1  UNL1        0.1437
     10 H          63.3321   90.4435   14.8581 H       1  UNL1        0.1437
     11 C          65.3093   91.9453   13.1729 C.ar    1  UNL1        0.0843
     12 C          65.8151   93.3422   12.9656 C.ar    1  UNL1        0.0215
     13 C          66.8847   93.8933   13.8613 C.ar    1  UNL1        0.0312
     14 C          67.4485   93.0474   14.9644 C.ar    1  UNL1        0.1402
     15 F          68.5180   93.5985   15.8602 F       1  UNL1       -0.2042
     16 C          66.9427   91.6506   15.1717 C.ar    1  UNL1        0.0312
     17 C          65.8731   91.0995   14.2759 C.ar    1  UNL1        0.0215
     18 C          60.6813   88.5556   10.2952 C.ar    1  UNL1        0.0421
     19 C          61.0964   87.1144   10.3155 C.ar    1  UNL1        0.0034
     20 C          60.7925   86.2298    9.1429 C.ar    1  UNL1        0.0032
     21 C          60.0734   86.7864    7.9500 C.ar    1  UNL1        0.0369
     22 C          59.6582   88.2276    7.9296 C.ar    1  UNL1        0.1388
     23 C          59.9621   89.1122    9.1022 C.ar    1  UNL1        0.0401
     24 O          58.9391   88.7842    6.7367 O.3     1  UNL1       -0.4728
     25 C          59.4530   90.0207    6.0608 C.3     1  UNL1        0.2369
     26 C          58.4929   90.9825    5.4259 C.3     1  UNL1        0.1835
     27 O          57.0178   90.7158    5.4806 O.3     1  UNL1       -0.3784
     28 H          56.5432   91.4293    5.0262 H       1  UNL1        0.2106
     29 C          59.0079   92.2110    4.7362 C.3     1  UNL1        0.1702
     30 O          58.8894   92.3400    3.2464 O.3     1  UNL1       -0.3794
     31 H          59.4442   91.6691    2.8187 H       1  UNL1        0.2105
@<TRIPOS>BOND
     1     3     4    1
     2     4     5   ar
     3     5     1    1
     4     1     2    2
     5     1    18    1
     6    18    19   ar
     7    19    20   ar
     8    20    21   ar
     9    21    22   ar
    10    22    24    1
    11    24    25    1
    12    25    26    1
    13    26    27    1
    14    26    29    1
    15    29    30    1
    16    22    23   ar
    17     5     6   ar
    18     6     7   ar
    19     7     8   ar
    20     8    11    1
    21    11    12   ar
    22    12    13   ar
    23    13    14   ar
    24    14    15    1
    25    14    16   ar
    26    16    17   ar
    27     8     4   ar
    28    17    11   ar
    29    23    18   ar
    30     3     9    1
    31     3    10    1
    32    27    28    1
    33    30    31    1
@<TRIPOS>MOLECULE
*****
 31 33 0 0 0
SMALL
GASTEIGER

@<TRIPOS>ATOM
      1 C          63.1352   90.1396   13.4352 C.2     1  UNL1        0.1999
      2 O          62.3945   89.7238   14.6715 O.2     1  UNL1       -0.2864
      3 N          62.9928   87.1440   12.1486 N.pl3   1  UNL1       -0.3425
      4 C          62.5281   88.4092   11.4905 C.ar    1  UNL1        0.1314
      5 C          62.5936   89.7861   12.0818 C.ar    1  UNL1        0.0909
      6 C          62.0223   90.7476   11.0822 C.ar    1  UNL1        0.1265
      7 N          61.6038   89.9649    9.8730 N.ar    1  UNL1       -0.1622
      8 N          61.9164   88.5196   10.1253 N.ar    1  UNL1       -0.2164
      9 H          63.3832   87.1736   13.0519 H       1  UNL1        0.1437
     10 H          62.9073   86.2838   11.6773 H       1  UNL1        0.1437
     11 C          61.6619   87.3842    9.1787 C.ar    1  UNL1        0.0843
     12 C          62.7628   86.4192    8.8517 C.ar    1  UNL1        0.0215
     13 C          62.5084   85.2838    7.9051 C.ar    1  UNL1        0.0312
     14 C          61.1530   85.1133    7.2855 C.ar    1  UNL1        0.1402
     15 F          60.8985   83.9779    6.3389 F       1  UNL1       -0.2042
     16 C          60.0521   86.0783    7.6124 C.ar    1  UNL1        0.0312
     17 C          60.3066   87.2137    8.5591 C.ar    1  UNL1        0.0215
     18 C          64.4177   90.9088   13.5523 C.ar    1  UNL1        0.0421
     19 C          65.3478   90.6460   14.6993 C.ar    1  UNL1        0.0034
     20 C          66.6302   91.4153   14.8164 C.ar    1  UNL1        0.0032
     21 C          66.9824   92.4474   13.7865 C.ar    1  UNL1        0.0369
     22 C          66.0522   92.7102   12.6395 C.ar    1  UNL1        0.1388
     23 C          64.7699   91.9409   12.5224 C.ar    1  UNL1        0.0401
     24 O          66.4045   93.7422   11.6095 O.3     1  UNL1       -0.4728
     25 C          66.6388   93.3317   10.1860 C.3     1  UNL1        0.2369
     26 C          67.8271   93.8605    9.4388 C.3     1  UNL1        0.1835
     27 O          69.1996   93.3402    9.7477 O.3     1  UNL1       -0.3784
     28 H          69.8489   93.7835    9.1796 H       1  UNL1        0.2106
     29 C          67.6429   94.9097    8.3827 C.3     1  UNL1        0.1702
     30 O          67.8154   96.3593    8.7275 O.3     1  UNL1       -0.3794
     31 H          67.1200   96.6292    9.3475 H       1  UNL1        0.2105
@<TRIPOS>BOND
     1     3     4    1
     2     4     5   ar
     3     5     1    1
     4     1     2    2
     5     1    18    1
     6    18    19   ar
     7    19    20   ar
     8    20    21   ar
     9    21    22   ar
    10    22    24    1
    11    24    25    1
    12    25    26    1
    13    26    27    1
    14    26    29    1
    15    29    30    1
    16    22    23   ar
    17     5     6   ar
    18     6     7   ar
    19     7     8   ar
    20     8    11    1
    21    11    12   ar
    22    12    13   ar
    23    13    14   ar
    24    14    15    1
    25    14    16   ar
    26    16    17   ar
    27     8     4   ar
    28    17    11   ar
    29    23    18   ar
    30     3     9    1
    31     3    10    1
    32    27    28    1
    33    30    31    1
@<TRIPOS>MOLECULE
*****
 31 33 0 0 0
SMALL
GASTEIGER

@<TRIPOS>ATOM
      1 C          63.8462   87.9176   14.9744 C.2     1  UNL1        0.1999
      2 O          63.3011   88.1220   16.3568 O.2     1  UNL1       -0.2864
      3 N          62.2965   86.0474   12.7949 N.pl3   1  UNL1       -0.3425
      4 C          63.5554   85.6890   13.5275 C.ar    1  UNL1        0.1314
      5 C          64.2677   86.5486   14.5293 C.ar    1  UNL1        0.0909
      6 C          65.4755   85.7988   15.0078 C.ar    1  UNL1        0.1265
      7 N          65.5097   84.4758   14.3018 N.ar    1  UNL1       -0.1622
      8 N          64.3229   84.4079   13.3869 N.ar    1  UNL1       -0.2164
      9 H          61.8639   86.9170   12.9558 H       1  UNL1        0.1437
     10 H          61.9028   85.4130   12.1532 H       1  UNL1        0.1437
     11 C          63.9664   83.2605   12.4890 C.ar    1  UNL1        0.0843
     12 C          63.1955   82.0942   13.0326 C.ar    1  UNL1        0.0215
     13 C          62.8389   80.9467   12.1348 C.ar    1  UNL1        0.0312
     14 C          63.2532   80.9655   10.6932 C.ar    1  UNL1        0.1402
     15 F          62.8967   79.8180    9.7953 F       1  UNL1       -0.2042
     16 C          64.0241   82.1318   10.1496 C.ar    1  UNL1        0.0312
     17 C          64.3807   83.2793   11.0474 C.ar    1  UNL1        0.0215
     18 C          63.9698   89.0822   14.0371 C.ar    1  UNL1        0.0421
     19 C          63.3532   89.0145   12.6714 C.ar    1  UNL1        0.0034
     20 C          63.4768   90.1790   11.7341 C.ar    1  UNL1        0.0032
     21 C          64.2171   91.4113   12.1626 C.ar    1  UNL1        0.0369
     22 C          64.8337   91.4790   13.5283 C.ar    1  UNL1        0.1388
     23 C          64.7101   90.3144   14.4655 C.ar    1  UNL1        0.0401
     24 O          65.5740   92.7112   13.9567 O.3     1  UNL1       -0.4728
     25 C          67.0186   92.8833   13.5916 C.3     1  UNL1        0.2369
     26 C          68.0904   92.4772   14.5592 C.3     1  UNL1        0.1835
     27 O          69.4388   92.0586   14.0527 O.3     1  UNL1       -0.3784
     28 H          70.0093   91.8298   14.8031 H       1  UNL1        0.2106
     29 C          67.8137   92.4895   16.0335 C.3     1  UNL1        0.1702
     30 O          66.5214   93.0499   16.5493 O.3     1  UNL1       -0.3794
     31 H          66.4876   94.0025   16.3698 H       1  UNL1        0.2105
@<TRIPOS>BOND
     1     3     4    1
     2     4     5   ar
     3     5     1    1
     4     1     2    2
     5     1    18    1
     6    18    19   ar
     7    19    20   ar
     8    20    21   ar
     9    21    22   ar
    10    22    24    1
    11    24    25    1
    12    25    26    1
    13    26    27    1
    14    26    29    1
    15    29    30    1
    16    22    23   ar
    17     5     6   ar
    18     6     7   ar
    19     7     8   ar
    20     8    11    1
    21    11    12   ar
    22    12    13   ar
    23    13    14   ar
    24    14    15    1
    25    14    16   ar
    26    16    17   ar
    27     8     4   ar
    28    17    11   ar
    29    23    18   ar
    30     3     9    1
    31     3    10    1
    32    27    28    1
    33    30    31    1
@<TRIPOS>MOLECULE
*****
 31 33 0 0 0
SMALL
GASTEIGER

@<TRIPOS>ATOM
      1 C          64.4193   91.0338   15.1312 C.2     1  UNL1        0.1999
      2 O          63.4706   91.6138   16.1380 O.2     1  UNL1       -0.2864
      3 N          62.7287   91.1509   12.3424 N.pl3   1  UNL1       -0.3425
      4 C          63.2271   89.9089   13.0198 C.ar    1  UNL1        0.1314
      5 C          64.0042   89.8551   14.3017 C.ar    1  UNL1        0.0909
      6 C          64.2934   88.4155   14.6083 C.ar    1  UNL1        0.1265
      7 N          63.6950   87.5796   13.5160 N.ar    1  UNL1       -0.1622
      8 N          63.0360   88.5026   12.5342 N.ar    1  UNL1       -0.2164
      9 H          62.9052   92.0337   12.7410 H       1  UNL1        0.1437
     10 H          62.2250   91.0834   11.4992 H       1  UNL1        0.1437
     11 C          62.3128   88.0915   11.2860 C.ar    1  UNL1        0.0843
     12 C          61.5444   89.1082   10.4950 C.ar    1  UNL1        0.0215
     13 C          60.8212   88.6972    9.2467 C.ar    1  UNL1        0.0312
     14 C          60.8665   87.2692    8.7895 C.ar    1  UNL1        0.1402
     15 F          60.1434   86.8581    7.5413 F       1  UNL1       -0.2042
     16 C          61.6350   86.2525    9.5805 C.ar    1  UNL1        0.0312
     17 C          62.3581   86.6636   10.8288 C.ar    1  UNL1        0.0215
     18 C          65.7831   91.6328   14.9539 C.ar    1  UNL1        0.0421
     19 C          66.4268   92.3798   16.0842 C.ar    1  UNL1        0.0034
     20 C          67.7906   92.9787   15.9069 C.ar    1  UNL1        0.0032
     21 C          68.5106   92.8305   14.5994 C.ar    1  UNL1        0.0369
     22 C          67.8669   92.0834   13.4692 C.ar    1  UNL1        0.1388
     23 C          66.5032   91.4845   13.6464 C.ar    1  UNL1        0.0401
     24 O          68.5870   91.9352   12.1616 O.3     1  UNL1       -0.4728
     25 C          67.8276   92.0340   10.8719 C.3     1  UNL1        0.2369
     26 C          67.2552   93.3506   10.4375 C.3     1  UNL1        0.1835
     27 O          68.1154   94.3375    9.7054 O.3     1  UNL1       -0.3784
     28 H          67.5950   95.1298    9.4995 H       1  UNL1        0.2106
     29 C          65.8224   93.6804   10.7352 C.3     1  UNL1        0.1702
     30 O          64.7355   92.7244   10.3420 O.3     1  UNL1       -0.3794
     31 H          64.6909   92.6655    9.3749 H       1  UNL1        0.2105
@<TRIPOS>BOND
     1     3     4    1
     2     4     5   ar
     3     5     1    1
     4     1     2    2
     5     1    18    1
     6    18    19   ar
     7    19    20   ar
     8    20    21   ar
     9    21    22   ar
    10    22    24    1
    11    24    25    1
    12    25    26    1
    13    26    27    1
    14    26    29    1
    15    29    30    1
    16    22    23   ar
    17     5     6   ar
    18     6     7   ar
    19     7     8   ar
    20     8    11    1
    21    11    12   ar
    22    12    13   ar
    23    13    14   ar
    24    14    15    1
    25    14    16   ar
    26    16    17   ar
    27     8     4   ar
    28    17    11   ar
    29    23    18   ar
    30     3     9    1
    31     3    10    1
    32    27    28    1
    33    30    31    1
@<TRIPOS>MOLECULE
*****
 31 33 0 0 0
SMALL
GASTEIGER

@<TRIPOS>ATOM
      1 C          63.8512   87.9699   14.9990 C.2     1  UNL1        0.1999
      2 O          63.1711   88.1438   16.3245 O.2     1  UNL1       -0.2864
      3 N          62.3253   86.1445   12.7654 N.pl3   1  UNL1       -0.3425
      4 C          63.5665   85.7638   13.5168 C.ar    1  UNL1        0.1314
      5 C          64.2679   86.6028   14.5435 C.ar    1  UNL1        0.0909
      6 C          65.4590   85.8348   15.0346 C.ar    1  UNL1        0.1265
      7 N          65.4939   84.5210   14.3116 N.ar    1  UNL1       -0.1622
      8 N          64.3241   84.4772   13.3735 N.ar    1  UNL1       -0.2164
      9 H          61.8982   87.0161   12.9299 H       1  UNL1        0.1437
     10 H          61.9378   85.5226   12.1078 H       1  UNL1        0.1437
     11 C          63.9737   83.3454   12.4536 C.ar    1  UNL1        0.0843
     12 C          63.1681   82.1870   12.9626 C.ar    1  UNL1        0.0215
     13 C          62.8176   81.0552   12.0428 C.ar    1  UNL1        0.0312
     14 C          63.2728   81.0818   10.6137 C.ar    1  UNL1        0.1402
     15 F          62.9223   79.9500    9.6938 F       1  UNL1       -0.2042
     16 C          64.0784   82.2401   10.1046 C.ar    1  UNL1        0.0312
     17 C          64.4288   83.3719   11.0245 C.ar    1  UNL1        0.0215
     18 C          64.1148   89.1631   14.1289 C.ar    1  UNL1        0.0421
     19 C          65.0531   90.2372   14.5932 C.ar    1  UNL1        0.0034
     20 C          65.3166   91.4303   13.7231 C.ar    1  UNL1        0.0032
     21 C          64.6418   91.5493   12.3888 C.ar    1  UNL1        0.0369
     22 C          63.7034   90.4751   11.9245 C.ar    1  UNL1        0.1388
     23 C          63.4399   89.2820   12.7946 C.ar    1  UNL1        0.0401
     24 O          63.0286   90.5940   10.5902 O.3     1  UNL1       -0.4728
     25 C          62.2563   89.4345   10.0343 C.3     1  UNL1        0.2369
     26 C          60.7644   89.3870   10.1822 C.3     1  UNL1        0.1835
     27 O          59.9406   90.6006    9.8683 O.3     1  UNL1       -0.3784
     28 H          59.0027   90.4015   10.0153 H       1  UNL1        0.2106
     29 C          60.0963   88.1258   10.6440 C.3     1  UNL1        0.1702
     30 O          59.7603   87.9429   12.0944 O.3     1  UNL1       -0.3794
     31 H          60.5790   87.8918   12.6120 H       1  UNL1        0.2105
@<TRIPOS>BOND
     1     3     4    1
     2     4     5   ar
     3     5     1    1
     4     1     2    2
     5     1    18    1
     6    18    19   ar
     7    19    20   ar
     8    20    21   ar
     9    21    22   ar
    10    22    24    1
    11    24    25    1
    12    25    26    1
    13    26    27    1
    14    26    29    1
    15    29    30    1
    16    22    23   ar
    17     5     6   ar
    18     6     7   ar
    19     7     8   ar
    20     8    11    1
    21    11    12   ar
    22    12    13   ar
    23    13    14   ar
    24    14    15    1
    25    14    16   ar
    26    16    17   ar
    27     8     4   ar
    28    17    11   ar
    29    23    18   ar
    30     3     9    1
    31     3    10    1
    32    27    28    1
    33    30    31    1
@<TRIPOS>MOLECULE
*****
 31 33 0 0 0
SMALL
GASTEIGER

@<TRIPOS>ATOM
      1 C          61.5600   89.9702   10.8246 C.2     1  UNL1        0.1999
      2 O          60.2300   90.6616   10.7691 O.2     1  UNL1       -0.2864
      3 N          63.1561   87.7599   12.6180 N.pl3   1  UNL1       -0.3425
      4 C          62.3881   87.4856   11.3590 C.ar    1  UNL1        0.1314
      5 C          61.6545   88.5015   10.5347 C.ar    1  UNL1        0.0909
      6 C          61.0319   87.7910    9.3696 C.ar    1  UNL1        0.1265
      7 N          61.3807   86.3358    9.4738 N.ar    1  UNL1       -0.1622
      8 N          62.2190   86.1471   10.7034 N.ar    1  UNL1       -0.2164
      9 H          63.2099   88.6770   12.9719 H       1  UNL1        0.1437
     10 H          63.6065   87.0228   13.0903 H       1  UNL1        0.1437
     11 C          62.7881   84.8479   11.1916 C.ar    1  UNL1        0.0843
     12 C          62.5996   84.4368   12.6218 C.ar    1  UNL1        0.0215
     13 C          63.1687   83.1377   13.1100 C.ar    1  UNL1        0.0312
     14 C          63.9264   82.2496   12.1680 C.ar    1  UNL1        0.1402
     15 F          64.4955   80.9505   12.6562 F       1  UNL1       -0.2042
     16 C          64.1149   82.6608   10.7378 C.ar    1  UNL1        0.0312
     17 C          63.5458   83.9599   10.2496 C.ar    1  UNL1        0.0215
     18 C          62.7956   90.7475   11.1700 C.ar    1  UNL1        0.0421
     19 C          63.5501   91.4730   10.0956 C.ar    1  UNL1        0.0034
     20 C          64.7855   92.2503   10.4410 C.ar    1  UNL1        0.0032
     21 C          65.2666   92.3021   11.8609 C.ar    1  UNL1        0.0369
     22 C          64.5121   91.5766   12.9353 C.ar    1  UNL1        0.1388
     23 C          63.2766   90.7993   12.5898 C.ar    1  UNL1        0.0401
     24 O          64.9931   91.6284   14.3551 O.3     1  UNL1       -0.4728
     25 C          66.4638   91.6141   14.6497 C.3     1  UNL1        0.2369
     26 C          67.0229   92.5036   15.7203 C.3     1  UNL1        0.1835
     27 O          66.1143   93.0848   16.7627 O.3     1  UNL1       -0.3784
     28 H          66.6319   93.6317   17.3742 H       1  UNL1        0.2106
     29 C          68.4906   92.8119   15.7485 C.3     1  UNL1        0.1702
     30 O          69.3393   92.5307   14.5441 O.3     1  UNL1       -0.3794
     31 H          69.3774   91.5734   14.3918 H       1  UNL1        0.2105
@<TRIPOS>BOND
     1     3     4    1
     2     4     5   ar
     3     5     1    1
     4     1     2    2
     5     1    18    1
     6    18    19   ar
     7    19    20   ar
     8    20    21   ar
     9    21    22   ar
    10    22    24    1
    11    24    25    1
    12    25    26    1
    13    26    27    1
    14    26    29    1
    15    29    30    1
    16    22    23   ar
    17     5     6   ar
    18     6     7   ar
    19     7     8   ar
    20     8    11    1
    21    11    12   ar
    22    12    13   ar
    23    13    14   ar
    24    14    15    1
    25    14    16   ar
    26    16    17   ar
    27     8     4   ar
    28    17    11   ar
    29    23    18   ar
    30     3     9    1
    31     3    10    1
    32    27    28    1
    33    30    31    1
@<TRIPOS>MOLECULE
*****
 31 33 0 0 0
SMALL
GASTEIGER

@<TRIPOS>ATOM
      1 C          62.0578   89.3849   11.9482 C.2     1  UNL1        0.1999
      2 O          60.7500   89.7746   12.5709 O.2     1  UNL1       -0.2864
      3 N          63.1129   91.4753    9.6753 N.pl3   1  UNL1       -0.3425
      4 C          63.7308   91.2534   11.0239 C.ar    1  UNL1        0.1314
      5 C          63.2459   90.2925   12.0687 C.ar    1  UNL1        0.0909
      6 C          64.1577   90.3987   13.2550 C.ar    1  UNL1        0.1265
      7 N          65.2061   91.4252   12.9435 N.ar    1  UNL1       -0.1622
      8 N          64.9423   91.9534   11.5646 N.ar    1  UNL1       -0.2164
      9 H          62.3141   90.9647    9.4098 H       1  UNL1        0.1437
     10 H          63.5060   92.1316    9.0556 H       1  UNL1        0.1437
     11 C          65.7485   92.9982   10.8515 C.ar    1  UNL1        0.0843
     12 C          66.9688   92.6028   10.0740 C.ar    1  UNL1        0.0215
     13 C          67.7750   93.6476    9.3609 C.ar    1  UNL1        0.0312
     14 C          67.3608   95.0879    9.4253 C.ar    1  UNL1        0.1402
     15 F          68.1670   96.1327    8.7122 F       1  UNL1       -0.2042
     16 C          66.1405   95.4833   10.2028 C.ar    1  UNL1        0.0312
     17 C          65.3343   94.4385   10.9159 C.ar    1  UNL1        0.0215
     18 C          62.1775   88.0873   11.2051 C.ar    1  UNL1        0.0421
     19 C          62.0574   88.0654    9.7101 C.ar    1  UNL1        0.0034
     20 C          62.1771   86.7680    8.9670 C.ar    1  UNL1        0.0032
     21 C          62.4168   85.4924    9.7190 C.ar    1  UNL1        0.0369
     22 C          62.5369   85.5143   11.2140 C.ar    1  UNL1        0.1388
     23 C          62.4172   86.8117   11.9570 C.ar    1  UNL1        0.0401
     24 O          62.7766   84.2387   11.9659 O.3     1  UNL1       -0.4728
     25 C          64.1373   83.9405   12.5224 C.3     1  UNL1        0.2369
     26 C          64.4153   84.1576   13.9804 C.3     1  UNL1        0.1835
     27 O          65.8185   84.4092   14.4469 O.3     1  UNL1       -0.3784
     28 H          65.8228   84.5277   15.4097 H       1  UNL1        0.2106
     29 C          63.2901   84.1232   14.9717 C.3     1  UNL1        0.1702
     30 O          62.8267   82.8124   15.5350 O.3     1  UNL1       -0.3794
     31 H          62.4360   82.2764   14.8273 H       1  UNL1        0.2105
@<TRIPOS>BOND
     1     3     4    1
     2     4     5   ar
     3     5     1    1
     4     1     2    2
     5     1    18    1
     6    18    19   ar
     7    19    20   ar
     8    20    21   ar
     9    21    22   ar
    10    22    24    1
    11    24    25    1
    12    25    26    1
    13    26    27    1
    14    26    29    1
    15    29    30    1
    16    22    23   ar
    17     5     6   ar
    18     6     7   ar
    19     7     8   ar
    20     8    11    1
    21    11    12   ar
    22    12    13   ar
    23    13    14   ar
    24    14    15    1
    25    14    16   ar
    26    16    17   ar
    27     8     4   ar
    28    17    11   ar
    29    23    18   ar
    30     3     9    1
    31     3    10    1
    32    27    28    1
    33    30    31    1
@<TRIPOS>MOLECULE
*****
 31 33 0 0 0
SMALL
GASTEIGER

@<TRIPOS>ATOM
      1 C          61.4941   89.8011   11.0197 C.2     1  UNL1        0.1999
      2 O          60.1418   90.4194   11.2163 O.2     1  UNL1       -0.2864
      3 N          63.0795   90.2767   13.8321 N.pl3   1  UNL1       -0.3425
      4 C          63.4601   90.8472   12.4980 C.ar    1  UNL1        0.1314
      5 C          62.7314   90.6286   11.2053 C.ar    1  UNL1        0.0909
      6 C          63.4571   91.3828   10.1308 C.ar    1  UNL1        0.1265
      7 N          64.6343   92.0675   10.7594 N.ar    1  UNL1       -0.1622
      8 N          64.6362   91.7365   12.2225 N.ar    1  UNL1       -0.2164
      9 H          62.2855   89.7003   13.9125 H       1  UNL1        0.1437
     10 H          63.6238   90.4787   14.6272 H       1  UNL1        0.1437
     11 C          65.6382   92.2114   13.2327 C.ar    1  UNL1        0.0843
     12 C          66.0802   93.6448   13.2340 C.ar    1  UNL1        0.0215
     13 C          67.0823   94.1198   14.2441 C.ar    1  UNL1        0.0312
     14 C          67.6423   93.1613   15.2530 C.ar    1  UNL1        0.1402
     15 F          68.6443   93.6362   16.2631 F       1  UNL1       -0.2042
     16 C          67.2003   91.7279   15.2516 C.ar    1  UNL1        0.0312
     17 C          66.1982   91.2529   14.2415 C.ar    1  UNL1        0.0215
     18 C          61.6093   88.3551   10.6373 C.ar    1  UNL1        0.0421
     19 C          61.0568   87.8797    9.3263 C.ar    1  UNL1        0.0034
     20 C          61.1720   86.4339    8.9440 C.ar    1  UNL1        0.0032
     21 C          61.8396   85.4634    9.8727 C.ar    1  UNL1        0.0369
     22 C          62.3921   85.9388   11.1837 C.ar    1  UNL1        0.1388
     23 C          62.2769   87.3847   11.5660 C.ar    1  UNL1        0.0401
     24 O          63.0597   84.9684   12.1124 O.3     1  UNL1       -0.4728
     25 C          63.6055   85.4423   13.4267 C.3     1  UNL1        0.2369
     26 C          64.3528   84.4923   14.3150 C.3     1  UNL1        0.1835
     27 O          65.8502   84.5486   14.3820 O.3     1  UNL1       -0.3784
     28 H          66.1720   83.8721   14.9982 H       1  UNL1        0.2106
     29 C          63.6026   83.4859   15.1363 C.3     1  UNL1        0.1702
     30 O          63.3211   82.1224   14.5781 O.3     1  UNL1       -0.3794
     31 H          62.7157   82.2003   13.8242 H       1  UNL1        0.2105
@<TRIPOS>BOND
     1     3     4    1
     2     4     5   ar
     3     5     1    1
     4     1     2    2
     5     1    18    1
     6    18    19   ar
     7    19    20   ar
     8    20    21   ar
     9    21    22   ar
    10    22    24    1
    11    24    25    1
    12    25    26    1
    13    26    27    1
    14    26    29    1
    15    29    30    1
    16    22    23   ar
    17     5     6   ar
    18     6     7   ar
    19     7     8   ar
    20     8    11    1
    21    11    12   ar
    22    12    13   ar
    23    13    14   ar
    24    14    15    1
    25    14    16   ar
    26    16    17   ar
    27     8     4   ar
    28    17    11   ar
    29    23    18   ar
    30     3     9    1
    31     3    10    1
    32    27    28    1
    33    30    31    1
