@<TRIPOS>MOLECULE
*****
 24 27 0 0 0
SMALL
GASTEIGER

@<TRIPOS>ATOM
      1 C          62.5627   89.5813   10.7486 C.ar    1  UNL1        0.0013
      2 C          63.0744   90.8072   10.0520 C.ar    1  UNL1        0.0015
      3 C          64.0051   91.7421   10.7660 C.ar    1  UNL1        0.0173
      4 C          64.4241   91.4510   12.1766 C.ar    1  UNL1        0.0622
      5 C          63.9124   90.2251   12.8732 C.ar    1  UNL1       -0.0056
      6 C          62.9817   89.2903   12.1592 C.ar    1  UNL1       -0.0028
      7 C          64.3314   89.9340   14.2837 C.3     1  UNL1        0.0358
      8 C          65.2621   90.8689   14.9977 C.3     1  UNL1        0.0709
      9 C          65.7738   92.0949   14.3011 C.ar    1  UNL1        0.1471
     10 N          66.6953   93.1914   14.7466 N.ar    1  UNL1       -0.1333
     11 N          66.8458   94.1601   13.6113 N.ar    1  UNL1       -0.1333
     12 C          66.0174   93.6624   12.4642 C.ar    1  UNL1        0.1472
     13 C          65.8762   94.3247   11.1258 C.3     1  UNL1        0.0742
     14 N          65.3548   92.3859   12.8906 N.ar    1  UNL1       -0.2810
     15 C          61.2515   86.5430    8.5579 C.ar    1  UNL1        0.0948
     16 C          59.7705   86.7766    8.6067 C.ar    1  UNL1        0.1053
     17 N          59.2203   87.9451    9.3694 N.ar    1  UNL1       -0.2421
     18 C          60.1511   88.8800   10.0834 C.ar    1  UNL1        0.0988
     19 C          61.6319   88.6464   10.0346 C.ar    1  UNL1        0.0194
     20 C          62.1821   87.4779    9.2718 C.ar    1  UNL1        0.0096
     21 C          61.8017   85.3744    7.7951 C.2     1  UNL1        0.3429
     22 O          63.1009   84.7514    8.2118 O.2     1  UNL1       -0.2448
     23 C          61.7985   84.1758    5.4901 C.3     1  UNL1        0.2560
     24 O          61.0525   84.8289    6.6156 O.3     1  UNL1       -0.4413
@<TRIPOS>BOND
     1    23    24    1
     2    24    21    1
     3    21    22    2
     4    21    15    1
     5    15    16   ar
     6    16    17   ar
     7    17    18   ar
     8    18    19   ar
     9    19     1    1
    10     1     2   ar
    11     2     3   ar
    12     3     4   ar
    13     4     5   ar
    14     5     6   ar
    15     5     7    1
    16     7     8    1
    17     8     9    1
    18     9    10   ar
    19    10    11   ar
    20    11    12   ar
    21    12    13    1
    22    12    14   ar
    23    19    20   ar
    24    20    15   ar
    25     6     1   ar
    26    14     9   ar
    27    14     4    1
@<TRIPOS>MOLECULE
*****
 24 27 0 0 0
SMALL
GASTEIGER

@<TRIPOS>ATOM
      1 C          64.2024   88.6334   14.3143 C.ar    1  UNL1        0.0013
      2 C          64.5453   87.4190   15.1253 C.ar    1  UNL1        0.0015
      3 C          64.2020   86.0524   14.6111 C.ar    1  UNL1        0.0173
      4 C          63.5159   85.9001   13.2860 C.ar    1  UNL1        0.0622
      5 C          63.1730   87.1144   12.4750 C.ar    1  UNL1       -0.0056
      6 C          63.5162   88.4811   12.9891 C.ar    1  UNL1       -0.0028
      7 C          62.4868   86.9621   11.1499 C.3     1  UNL1        0.0358
      8 C          62.1435   85.5955   10.6357 C.3     1  UNL1        0.0709
      9 C          62.4864   84.3810   11.4467 C.ar    1  UNL1        0.1471
     10 N          62.2742   82.9167   11.2003 N.ar    1  UNL1       -0.1333
     11 N          62.8292   82.1641   12.3731 N.ar    1  UNL1       -0.1333
     12 C          63.3844   83.1631   13.3444 C.ar    1  UNL1        0.1472
     13 C          64.0369   82.8475   14.6576 C.3     1  UNL1        0.0742
     14 N          63.1726   84.5333   12.7719 N.ar    1  UNL1       -0.2810
     15 C          66.0438   92.1214   14.7535 C.ar    1  UNL1        0.0948
     16 C          65.2322   92.7335   15.8566 C.ar    1  UNL1        0.1053
     17 N          64.0774   91.9789   16.4455 N.ar    1  UNL1       -0.2421
     18 C          63.7341   90.6122   15.9314 C.ar    1  UNL1        0.0988
     19 C          64.5457   90.0001   14.8284 C.ar    1  UNL1        0.0194
     20 C          65.7006   90.7547   14.2395 C.ar    1  UNL1        0.0096
     21 C          67.1987   92.8760   14.1646 C.2     1  UNL1        0.3429
     22 O          68.3262   93.3281   15.0446 O.2     1  UNL1       -0.2448
     23 C          66.0451   93.8334   12.0426 C.3     1  UNL1        0.2560
     24 O          67.2261   93.1785   12.6956 O.3     1  UNL1       -0.4413
@<TRIPOS>BOND
     1    23    24    1
     2    24    21    1
     3    21    22    2
     4    21    15    1
     5    15    16   ar
     6    16    17   ar
     7    17    18   ar
     8    18    19   ar
     9    19     1    1
    10     1     2   ar
    11     2     3   ar
    12     3     4   ar
    13     4     5   ar
    14     5     6   ar
    15     5     7    1
    16     7     8    1
    17     8     9    1
    18     9    10   ar
    19    10    11   ar
    20    11    12   ar
    21    12    13    1
    22    12    14   ar
    23    19    20   ar
    24    20    15   ar
    25     6     1   ar
    26    14     9   ar
    27    14     4    1
@<TRIPOS>MOLECULE
*****
 24 27 0 0 0
SMALL
GASTEIGER

@<TRIPOS>ATOM
      1 C          62.1299   89.7789   10.4186 C.ar    1  UNL1        0.0013
      2 C          62.8142   91.0469   10.0015 C.ar    1  UNL1        0.0015
      3 C          63.8224   91.6882   10.9082 C.ar    1  UNL1        0.0173
      4 C          64.1462   91.0616   12.2320 C.ar    1  UNL1        0.0622
      5 C          63.4619   89.7936   12.6491 C.ar    1  UNL1       -0.0056
      6 C          62.4537   89.1523   11.7424 C.ar    1  UNL1       -0.0028
      7 C          63.7858   89.1670   13.9729 C.3     1  UNL1        0.0358
      8 C          64.7940   89.8083   14.8796 C.3     1  UNL1        0.0709
      9 C          65.4784   91.0763   14.4626 C.ar    1  UNL1        0.1471
     10 N          66.5078   91.9311   15.1405 N.ar    1  UNL1       -0.1333
     11 N          66.8201   93.0859   14.2358 N.ar    1  UNL1       -0.1333
     12 C          65.9838   92.9450   12.9986 C.ar    1  UNL1        0.1472
     13 C          65.9777   93.8816   11.8270 C.3     1  UNL1        0.0742
     14 N          65.1545   91.7030   13.1388 N.ar    1  UNL1       -0.2810
     15 C          59.6326   89.2236    7.3845 C.ar    1  UNL1        0.0948
     16 C          59.1052   87.8548    7.6983 C.ar    1  UNL1        0.1053
     17 N          59.5859   87.1275    8.9189 N.ar    1  UNL1       -0.2421
     18 C          60.5942   87.7689    9.8257 C.ar    1  UNL1        0.0988
     19 C          61.1216   89.1375    9.5118 C.ar    1  UNL1        0.0194
     20 C          60.6408   89.8649    8.2912 C.ar    1  UNL1        0.0096
     21 C          59.1519   89.9509    6.1639 C.2     1  UNL1        0.3429
     22 O          60.1409   90.4804    5.1682 O.2     1  UNL1       -0.2448
     23 C          57.2015   91.2627    5.0569 C.3     1  UNL1        0.2560
     24 O          57.6820   90.1487    5.9390 O.3     1  UNL1       -0.4413
@<TRIPOS>BOND
     1    23    24    1
     2    24    21    1
     3    21    22    2
     4    21    15    1
     5    15    16   ar
     6    16    17   ar
     7    17    18   ar
     8    18    19   ar
     9    19     1    1
    10     1     2   ar
    11     2     3   ar
    12     3     4   ar
    13     4     5   ar
    14     5     6   ar
    15     5     7    1
    16     7     8    1
    17     8     9    1
    18     9    10   ar
    19    10    11   ar
    20    11    12   ar
    21    12    13    1
    22    12    14   ar
    23    19    20   ar
    24    20    15   ar
    25     6     1   ar
    26    14     9   ar
    27    14     4    1
@<TRIPOS>MOLECULE
*****
 24 27 0 0 0
SMALL
GASTEIGER

@<TRIPOS>ATOM
      1 C          64.2199   89.2513   14.6088 C.ar    1  UNL1        0.0013
      2 C          63.7463   89.4472   13.1991 C.ar    1  UNL1        0.0015
      3 C          64.1615   90.6670   12.4312 C.ar    1  UNL1        0.0173
      4 C          65.0502   91.6908   13.0729 C.ar    1  UNL1        0.0622
      5 C          65.5238   91.4949   14.4826 C.ar    1  UNL1       -0.0056
      6 C          65.1087   90.2751   15.2505 C.ar    1  UNL1       -0.0028
      7 C          66.4126   92.5187   15.1244 C.3     1  UNL1        0.0358
      8 C          66.8278   93.7385   14.3564 C.3     1  UNL1        0.0709
      9 C          66.3542   93.9345   12.9467 C.ar    1  UNL1        0.1471
     10 N          66.5967   95.0282   11.9492 N.ar    1  UNL1       -0.1333
     11 N          65.8578   94.6803   10.6911 N.ar    1  UNL1       -0.1333
     12 C          65.1587   93.3716   10.9109 C.ar    1  UNL1        0.1472
     13 C          64.3030   92.6505    9.9120 C.3     1  UNL1        0.0742
     14 N          65.4654   92.9106   12.3049 N.ar    1  UNL1       -0.2810
     15 C          63.7258   85.4463   15.6226 C.ar    1  UNL1        0.0948
     16 C          62.9745   85.5919   16.9128 C.ar    1  UNL1        0.1053
     17 N          62.6384   86.9573   17.4349 N.ar    1  UNL1       -0.2421
     18 C          63.0535   88.1771   16.6669 C.ar    1  UNL1        0.0988
     19 C          63.8048   88.0315   15.3768 C.ar    1  UNL1        0.0194
     20 C          64.1409   86.6660   14.8546 C.ar    1  UNL1        0.0096
     21 C          64.0619   84.0808   15.1004 C.2     1  UNL1        0.3429
     22 O          65.2537   83.8909   14.2097 O.2     1  UNL1       -0.2448
     23 C          62.1534   82.4167   14.5188 C.3     1  UNL1        0.2560
     24 O          63.2061   82.9053   15.4691 O.3     1  UNL1       -0.4413
@<TRIPOS>BOND
     1    23    24    1
     2    24    21    1
     3    21    22    2
     4    21    15    1
     5    15    16   ar
     6    16    17   ar
     7    17    18   ar
     8    18    19   ar
     9    19     1    1
    10     1     2   ar
    11     2     3   ar
    12     3     4   ar
    13     4     5   ar
    14     5     6   ar
    15     5     7    1
    16     7     8    1
    17     8     9    1
    18     9    10   ar
    19    10    11   ar
    20    11    12   ar
    21    12    13    1
    22    12    14   ar
    23    19    20   ar
    24    20    15   ar
    25     6     1   ar
    26    14     9   ar
    27    14     4    1
@<TRIPOS>MOLECULE
*****
 24 27 0 0 0
SMALL
GASTEIGER

@<TRIPOS>ATOM
      1 C          63.3474   89.8311   13.1351 C.ar    1  UNL1        0.0013
      2 C          63.6899   88.3770   12.9999 C.ar    1  UNL1        0.0015
      3 C          63.0654   87.5577   11.9097 C.ar    1  UNL1        0.0173
      4 C          62.0985   88.1924   10.9546 C.ar    1  UNL1        0.0622
      5 C          61.7561   89.6465   11.0898 C.ar    1  UNL1       -0.0056
      6 C          62.3805   90.4658   12.1801 C.ar    1  UNL1       -0.0028
      7 C          60.7892   90.2813   10.1347 C.3     1  UNL1        0.0358
      8 C          60.1647   89.4619    9.0444 C.3     1  UNL1        0.0709
      9 C          60.5072   88.0078    8.9092 C.ar    1  UNL1        0.1471
     10 N          60.0536   86.9556    7.9411 N.ar    1  UNL1       -0.1333
     11 N          60.7401   85.6706    8.2979 N.ar    1  UNL1       -0.1333
     12 C          61.6180   85.9285    9.4864 C.ar    1  UNL1        0.1472
     13 C          62.4873   84.9192   10.1762 C.3     1  UNL1        0.0742
     14 N          61.4741   87.3730    9.8643 N.ar    1  UNL1       -0.2810
     15 C          65.8993   92.1723   15.0733 C.ar    1  UNL1        0.0948
     16 C          65.2207   92.2892   16.4060 C.ar    1  UNL1        0.1053
     17 N          63.9177   91.5867   16.6484 N.ar    1  UNL1       -0.2421
     18 C          63.2933   90.7673   15.5581 C.ar    1  UNL1        0.0988
     19 C          63.9718   90.6505   14.2255 C.ar    1  UNL1        0.0194
     20 C          65.2748   91.3529   13.9831 C.ar    1  UNL1        0.0096
     21 C          67.2023   92.8748   14.8310 C.2     1  UNL1        0.3429
     22 O          67.4264   93.6176   13.5473 O.2     1  UNL1       -0.2448
     23 C          69.2014   94.0063   16.0447 C.3     1  UNL1        0.2560
     24 O          68.2812   92.8343   15.8724 O.3     1  UNL1       -0.4413
@<TRIPOS>BOND
     1    23    24    1
     2    24    21    1
     3    21    22    2
     4    21    15    1
     5    15    16   ar
     6    16    17   ar
     7    17    18   ar
     8    18    19   ar
     9    19     1    1
    10     1     2   ar
    11     2     3   ar
    12     3     4   ar
    13     4     5   ar
    14     5     6   ar
    15     5     7    1
    16     7     8    1
    17     8     9    1
    18     9    10   ar
    19    10    11   ar
    20    11    12   ar
    21    12    13    1
    22    12    14   ar
    23    19    20   ar
    24    20    15   ar
    25     6     1   ar
    26    14     9   ar
    27    14     4    1
@<TRIPOS>MOLECULE
*****
 24 27 0 0 0
SMALL
GASTEIGER

@<TRIPOS>ATOM
      1 C          63.2504   89.5147   11.5493 C.ar    1  UNL1        0.0013
      2 C          63.4309   90.6091   10.5395 C.ar    1  UNL1        0.0015
      3 C          64.2120   91.8386   10.8976 C.ar    1  UNL1        0.0173
      4 C          64.8125   91.9737   12.2654 C.ar    1  UNL1        0.0622
      5 C          64.6320   90.8794   13.2752 C.ar    1  UNL1       -0.0056
      6 C          63.8510   89.6499   12.9172 C.ar    1  UNL1       -0.0028
      7 C          65.2326   91.0145   14.6431 C.3     1  UNL1        0.0358
      8 C          66.0137   92.2440   15.0012 C.3     1  UNL1        0.0709
      9 C          66.1942   93.3384   13.9914 C.ar    1  UNL1        0.1471
     10 N          66.9078   94.6562   14.0562 N.ar    1  UNL1       -0.1333
     11 N          66.7482   95.3355   12.7284 N.ar    1  UNL1       -0.1333
     12 C          65.9361   94.4376   11.8429 C.ar    1  UNL1        0.1472
     13 C          65.5365   94.7237   10.4257 C.3     1  UNL1        0.0742
     14 N          65.5936   93.2033   12.6235 N.ar    1  UNL1       -0.2810
     15 C          62.0761   85.7264   11.4100 C.ar    1  UNL1        0.0948
     16 C          60.9072   85.8261   10.4752 C.ar    1  UNL1        0.1053
     17 N          60.5194   87.1553    9.8985 N.ar    1  UNL1       -0.2421
     18 C          61.3005   88.3849   10.2565 C.ar    1  UNL1        0.0988
     19 C          62.4693   88.2852   11.1912 C.ar    1  UNL1        0.0194
     20 C          62.8572   86.9559   11.7680 C.ar    1  UNL1        0.0096
     21 C          62.4640   84.3971   11.9867 C.2     1  UNL1        0.3429
     22 O          62.5170   84.2117   13.4743 O.2     1  UNL1       -0.2448
     23 C          64.0364   83.3056   10.2299 C.3     1  UNL1        0.2560
     24 O          62.7988   83.2533   11.0759 O.3     1  UNL1       -0.4413
@<TRIPOS>BOND
     1    23    24    1
     2    24    21    1
     3    21    22    2
     4    21    15    1
     5    15    16   ar
     6    16    17   ar
     7    17    18   ar
     8    18    19   ar
     9    19     1    1
    10     1     2   ar
    11     2     3   ar
    12     3     4   ar
    13     4     5   ar
    14     5     6   ar
    15     5     7    1
    16     7     8    1
    17     8     9    1
    18     9    10   ar
    19    10    11   ar
    20    11    12   ar
    21    12    13    1
    22    12    14   ar
    23    19    20   ar
    24    20    15   ar
    25     6     1   ar
    26    14     9   ar
    27    14     4    1
@<TRIPOS>MOLECULE
*****
 24 27 0 0 0
SMALL
GASTEIGER

@<TRIPOS>ATOM
      1 C          64.2026   88.5507   14.3052 C.ar    1  UNL1        0.0013
      2 C          63.7182   88.8880   12.9263 C.ar    1  UNL1        0.0015
      3 C          64.1050   90.1919   12.2936 C.ar    1  UNL1        0.0173
      4 C          64.9760   91.1584   13.0400 C.ar    1  UNL1        0.0622
      5 C          65.4604   90.8211   14.4189 C.ar    1  UNL1       -0.0056
      6 C          65.0736   89.5173   15.0516 C.ar    1  UNL1       -0.0028
      7 C          66.3315   91.7877   15.1652 C.3     1  UNL1        0.0358
      8 C          66.7182   93.0916   14.5326 C.3     1  UNL1        0.0709
      9 C          66.2338   93.4290   13.1535 C.ar    1  UNL1        0.1471
     10 N          66.4494   94.6288   12.2796 N.ar    1  UNL1       -0.1333
     11 N          65.7116   94.4038   10.9932 N.ar    1  UNL1       -0.1333
     12 C          65.0400   93.0649   11.0720 C.ar    1  UNL1        0.1472
     13 C          64.1942   92.4385   10.0033 C.3     1  UNL1        0.0742
     14 N          65.3628   92.4624   12.4072 N.ar    1  UNL1       -0.2810
     15 C          63.3119   84.7066   14.7292 C.ar    1  UNL1        0.0948
     16 C          63.0424   84.6389   16.2033 C.ar    1  UNL1        0.1053
     17 N          63.1597   85.8752   17.0447 N.ar    1  UNL1       -0.2421
     18 C          63.5464   87.1791   16.4120 C.ar    1  UNL1        0.0988
     19 C          63.8158   87.2467   14.9380 C.ar    1  UNL1        0.0194
     20 C          63.6986   86.0105   14.0966 C.ar    1  UNL1        0.0096
     21 C          63.1946   83.4703   13.8878 C.2     1  UNL1        0.3429
     22 O          63.0623   83.5867   12.3983 O.2     1  UNL1       -0.2448
     23 C          62.3809   81.0042   13.9675 C.3     1  UNL1        0.2560
     24 O          63.2097   82.1177   14.5361 O.3     1  UNL1       -0.4413
@<TRIPOS>BOND
     1    23    24    1
     2    24    21    1
     3    21    22    2
     4    21    15    1
     5    15    16   ar
     6    16    17   ar
     7    17    18   ar
     8    18    19   ar
     9    19     1    1
    10     1     2   ar
    11     2     3   ar
    12     3     4   ar
    13     4     5   ar
    14     5     6   ar
    15     5     7    1
    16     7     8    1
    17     8     9    1
    18     9    10   ar
    19    10    11   ar
    20    11    12   ar
    21    12    13    1
    22    12    14   ar
    23    19    20   ar
    24    20    15   ar
    25     6     1   ar
    26    14     9   ar
    27    14     4    1
@<TRIPOS>MOLECULE
*****
 24 27 0 0 0
SMALL
GASTEIGER

@<TRIPOS>ATOM
      1 C          64.4446   89.3051   13.6954 C.ar    1  UNL1        0.0013
      2 C          63.7112   88.9541   12.4350 C.ar    1  UNL1        0.0015
      3 C          63.2312   87.5505   12.2127 C.ar    1  UNL1        0.0173
      4 C          63.4847   86.4979   13.2509 C.ar    1  UNL1        0.0622
      5 C          64.2181   86.8489   14.5114 C.ar    1  UNL1       -0.0056
      6 C          64.6981   88.2526   14.7336 C.ar    1  UNL1       -0.0028
      7 C          64.4716   85.7964   15.5496 C.3     1  UNL1        0.0358
      8 C          63.9916   84.3928   15.3274 C.3     1  UNL1        0.0709
      9 C          63.2581   84.0417   14.0668 C.ar    1  UNL1        0.1471
     10 N          62.6701   82.7529   13.5735 N.ar    1  UNL1       -0.1333
     11 N          62.0534   83.0090   12.2304 N.ar    1  UNL1       -0.1333
     12 C          62.2601   84.4559   11.8937 C.ar    1  UNL1        0.1472
     13 C          61.8025   85.1440   10.6417 C.3     1  UNL1        0.0742
     14 N          63.0047   85.0942   13.0286 N.ar    1  UNL1       -0.2810
     15 C          65.8766   92.9364   12.9788 C.ar    1  UNL1        0.0948
     16 C          65.8847   93.5161   14.3623 C.ar    1  UNL1        0.1053
     17 N          65.4128   92.6921   15.5235 N.ar    1  UNL1       -0.2421
     18 C          64.9328   91.2884   15.3012 C.ar    1  UNL1        0.0988
     19 C          64.9247   90.7088   13.9177 C.ar    1  UNL1        0.0194
     20 C          65.3966   91.5328   12.7566 C.ar    1  UNL1        0.0096
     21 C          66.3485   93.7604   11.8176 C.2     1  UNL1        0.3429
     22 O          67.5525   93.3306   11.0331 O.2     1  UNL1       -0.2448
     23 C          66.2563   96.3523   11.6644 C.3     1  UNL1        0.2560
     24 O          65.6163   95.0142   11.4410 O.3     1  UNL1       -0.4413
@<TRIPOS>BOND
     1    23    24    1
     2    24    21    1
     3    21    22    2
     4    21    15    1
     5    15    16   ar
     6    16    17   ar
     7    17    18   ar
     8    18    19   ar
     9    19     1    1
    10     1     2   ar
    11     2     3   ar
    12     3     4   ar
    13     4     5   ar
    14     5     6   ar
    15     5     7    1
    16     7     8    1
    17     8     9    1
    18     9    10   ar
    19    10    11   ar
    20    11    12   ar
    21    12    13    1
    22    12    14   ar
    23    19    20   ar
    24    20    15   ar
    25     6     1   ar
    26    14     9   ar
    27    14     4    1
@<TRIPOS>MOLECULE
*****
 24 27 0 0 0
SMALL
GASTEIGER

@<TRIPOS>ATOM
      1 C          59.3794   93.2060   -2.8285 C.ar    1  UNL1        0.0013
      2 C          59.2842   92.6818   -1.4263 C.ar    1  UNL1        0.0015
      3 C          60.4635   92.7855   -0.5053 C.ar    1  UNL1        0.0173
      4 C          61.7380   93.4134   -0.9864 C.ar    1  UNL1        0.0622
      5 C          61.8332   93.9376   -2.3885 C.ar    1  UNL1       -0.0056
      6 C          60.6539   93.8339   -3.3096 C.ar    1  UNL1       -0.0028
      7 C          63.1077   94.5655   -2.8696 C.3     1  UNL1        0.0358
      8 C          64.2870   94.6692   -1.9486 C.3     1  UNL1        0.0709
      9 C          64.1918   94.1450   -0.5463 C.ar    1  UNL1        0.1471
     10 N          65.1810   94.1081    0.5808 N.ar    1  UNL1       -0.1333
     11 N          64.5178   93.4574    1.7583 N.ar    1  UNL1       -0.1333
     12 C          63.1189   93.0922    1.3592 C.ar    1  UNL1        0.1472
     13 C          62.1002   92.4200    2.2312 C.3     1  UNL1        0.0742
     14 N          62.9174   93.5171   -0.0652 N.ar    1  UNL1       -0.2810
     15 C          56.1722   91.7617   -4.6664 C.ar    1  UNL1        0.0948
     16 C          55.8414   92.8949   -5.5919 C.ar    1  UNL1        0.1053
     17 N          56.6900   94.1318   -5.5963 N.ar    1  UNL1       -0.2421
     18 C          57.8693   94.2355   -4.6751 C.ar    1  UNL1        0.0988
     19 C          58.2000   93.1023   -3.7497 C.ar    1  UNL1        0.0194
     20 C          57.3515   91.8654   -3.7453 C.ar    1  UNL1        0.0096
     21 C          55.3236   90.5248   -4.6620 C.2     1  UNL1        0.3429
     22 O          55.2910   89.6419   -3.4499 O.2     1  UNL1       -0.2448
     23 C          53.4212   89.1417   -5.7658 C.3     1  UNL1        0.2560
     24 O          54.5075   90.1708   -5.8699 O.3     1  UNL1       -0.4413
@<TRIPOS>BOND
     1    23    24    1
     2    24    21    1
     3    21    22    2
     4    21    15    1
     5    15    16   ar
     6    16    17   ar
     7    17    18   ar
     8    18    19   ar
     9    19     1    1
    10     1     2   ar
    11     2     3   ar
    12     3     4   ar
    13     4     5   ar
    14     5     6   ar
    15     5     7    1
    16     7     8    1
    17     8     9    1
    18     9    10   ar
    19    10    11   ar
    20    11    12   ar
    21    12    13    1
    22    12    14   ar
    23    19    20   ar
    24    20    15   ar
    25     6     1   ar
    26    14     9   ar
    27    14     4    1
