@<TRIPOS>MOLECULE
*****
 35 38 0 0 0
SMALL
GASTEIGER

@<TRIPOS>ATOM
      1 N          63.0542   90.8925   11.7073 N.am    1  UNL1       -0.2438
      2 C          63.5833   91.5091   10.4465 C.3     1  UNL1        0.1009
      3 C          64.7799   92.4122   10.4980 C.3     1  UNL1        0.0662
      4 C          65.4474   92.6987   11.8103 C.3     1  UNL1        0.1600
      5 O          64.9183   92.0820   13.0713 O.3     1  UNL1       -0.4374
      6 C          63.7217   91.1789   13.0198 C.2     1  UNL1        0.4051
      7 O          63.1927   90.5623   14.2806 O.2     1  UNL1       -0.2262
      8 C          66.3126   93.5130   10.8948 C.ar    1  UNL1        0.0138
      9 C          66.2717   95.0111   10.9598 C.ar    1  UNL1       -0.0010
     10 C          67.1369   95.8254   10.0443 C.ar    1  UNL1       -0.0002
     11 C          68.0431   95.1417    9.0638 C.ar    1  UNL1       -0.0000
     12 C          68.0840   93.6437    8.9987 C.ar    1  UNL1       -0.0002
     13 C          67.2187   92.8293    9.9143 C.ar    1  UNL1       -0.0010
     14 C          60.4810   90.5741   11.5434 C.3     1  UNL1        0.0265
     15 C          61.8577   89.9893   11.6558 C.3     1  UNL1        0.1011
     16 C          62.0379   88.5014   11.7168 C.ar    1  UNL1       -0.0042
     17 C          63.1293   87.9121   12.5603 C.ar    1  UNL1       -0.0027
     18 C          63.3094   86.4242   12.6212 C.ar    1  UNL1       -0.0003
     19 C          62.3982   85.5257   11.8387 C.ar    1  UNL1        0.0002
     20 C          61.3068   86.1150   10.9952 C.ar    1  UNL1       -0.0003
     21 C          61.1267   87.6029   10.9343 C.ar    1  UNL1       -0.0027
     22 C          62.5784   84.0377   11.8997 C.ar    1  UNL1        0.0062
     23 C          63.0322   83.2867   10.6832 C.ar    1  UNL1        0.0189
     24 C          63.2124   81.7988   10.7441 C.ar    1  UNL1        0.0784
     25 N          62.9388   81.0619   12.0217 N.ar    1  UNL1       -0.2922
     26 C          63.1190   79.5741   12.0827 C.3     1  UNL1        0.1336
     27 C          62.4850   81.8130   13.2383 C.ar    1  UNL1        0.2610
     28 O          62.2113   81.0762   14.5158 O.2     1  UNL1       -0.2670
     29 C          62.3048   83.3009   13.1773 C.ar    1  UNL1        0.0608
     30 C          66.4154   93.2680   12.8048 C.3     1  UNL1        0.0714
     31 C          67.0549   92.3739   13.8254 C.3     1  UNL1        0.0922
     32 C          66.2909   93.0691   14.9131 C.3     1  UNL1        0.0294
     33 C          67.8189   91.6788   12.7377 C.3     1  UNL1        0.0294
     34 O          67.6944   91.4799   14.8460 O.3     1  UNL1       -0.3866
     35 H          67.3664   91.7111   15.7291 H       1  UNL1        0.2102
@<TRIPOS>BOND
     1    15    14    1
     2    15    16    1
     3    16    17   ar
     4    17    18   ar
     5    18    19   ar
     6    19    22    1
     7    22    23   ar
     8    23    24   ar
     9    24    25   ar
    10    25    26    1
    11    25    27   ar
    12    27    28    2
    13    27    29   ar
    14    19    20   ar
    15    20    21   ar
    16    15     1    1
    17     1     2    1
    18     2     3    1
    19     3     4    1
    20     4    30    1
    21    30    31    1
    22    31    32    1
    23    31    33    1
    24    31    34    1
    25     4     8    1
    26     8     9   ar
    27     9    10   ar
    28    10    11   ar
    29    11    12   ar
    30    12    13   ar
    31     4     5    1
    32     5     6    1
    33     6     7    2
    34    21    16   ar
    35     6     1   am
    36    29    22   ar
    37    13     8   ar
    38    34    35    1
@<TRIPOS>MOLECULE
*****
 35 38 0 0 0
SMALL
GASTEIGER

@<TRIPOS>ATOM
      1 N          63.5309   90.5970   11.9350 N.am    1  UNL1       -0.2438
      2 C          64.2246   90.4262   13.2540 C.3     1  UNL1        0.1009
      3 C          65.4148   91.2747   13.5908 C.3     1  UNL1        0.0662
      4 C          65.9114   92.2939   12.6087 C.3     1  UNL1        0.1600
      5 O          65.2178   92.4647   11.2897 O.3     1  UNL1       -0.4374
      6 C          64.0275   91.6162   10.9528 C.2     1  UNL1        0.4051
      7 O          63.3339   91.7869    9.6339 O.2     1  UNL1       -0.2262
      8 C          66.8964   92.5022   13.7207 C.ar    1  UNL1        0.0138
      9 C          66.4795   93.2276   14.9657 C.ar    1  UNL1       -0.0010
     10 C          67.4644   93.4359   16.0777 C.ar    1  UNL1       -0.0002
     11 C          68.8662   92.9189   15.9446 C.ar    1  UNL1       -0.0000
     12 C          69.2831   92.1935   14.6996 C.ar    1  UNL1       -0.0002
     13 C          68.2981   91.9852   13.5876 C.ar    1  UNL1       -0.0010
     14 C          61.0927   90.3857   11.0631 C.3     1  UNL1        0.0265
     15 C          62.3407   89.7485   11.5982 C.3     1  UNL1        0.1011
     16 C          62.3985   88.2627   11.7965 C.ar    1  UNL1       -0.0042
     17 C          63.3252   87.6783   12.8210 C.ar    1  UNL1       -0.0027
     18 C          63.3830   86.1926   13.0193 C.ar    1  UNL1       -0.0003
     19 C          62.5141   85.2914   12.1930 C.ar    1  UNL1        0.0002
     20 C          61.5874   85.8758   11.1685 C.ar    1  UNL1       -0.0003
     21 C          61.5296   87.3615   10.9702 C.ar    1  UNL1       -0.0027
     22 C          62.5719   83.8056   12.3913 C.ar    1  UNL1        0.0062
     23 C          62.3839   83.2239   13.7610 C.ar    1  UNL1        0.0189
     24 C          62.4417   81.7381   13.9593 C.ar    1  UNL1        0.0784
     25 N          62.6875   80.8341   12.7878 N.ar    1  UNL1       -0.2922
     26 C          62.7453   79.3485   12.9861 C.3     1  UNL1        0.1336
     27 C          62.8756   81.4159   11.4180 C.ar    1  UNL1        0.2610
     28 O          63.1214   80.5120   10.2465 O.2     1  UNL1       -0.2670
     29 C          62.8177   82.9016   11.2198 C.ar    1  UNL1        0.0608
     30 C          66.7501   93.3855   12.0127 C.3     1  UNL1        0.0714
     31 C          66.6017   93.7383   10.5624 C.3     1  UNL1        0.0922
     32 C          67.4387   92.5511   10.1880 C.3     1  UNL1        0.0294
     33 C          65.7648   94.9254   10.9368 C.3     1  UNL1        0.0294
     34 O          66.4534   94.0910    9.1120 O.3     1  UNL1       -0.3866
     35 H          66.9317   93.4432    8.5712 H       1  UNL1        0.2102
@<TRIPOS>BOND
     1    15    14    1
     2    15    16    1
     3    16    17   ar
     4    17    18   ar
     5    18    19   ar
     6    19    22    1
     7    22    23   ar
     8    23    24   ar
     9    24    25   ar
    10    25    26    1
    11    25    27   ar
    12    27    28    2
    13    27    29   ar
    14    19    20   ar
    15    20    21   ar
    16    15     1    1
    17     1     2    1
    18     2     3    1
    19     3     4    1
    20     4    30    1
    21    30    31    1
    22    31    32    1
    23    31    33    1
    24    31    34    1
    25     4     8    1
    26     8     9   ar
    27     9    10   ar
    28    10    11   ar
    29    11    12   ar
    30    12    13   ar
    31     4     5    1
    32     5     6    1
    33     6     7    2
    34    21    16   ar
    35     6     1   am
    36    29    22   ar
    37    13     8   ar
    38    34    35    1
@<TRIPOS>MOLECULE
*****
 35 38 0 0 0
SMALL
GASTEIGER

@<TRIPOS>ATOM
      1 N          63.6688   87.8505   13.9382 N.am    1  UNL1       -0.2438
      2 C          64.1282   86.5990   14.6259 C.3     1  UNL1        0.1009
      3 C          63.8174   85.2583   14.0295 C.3     1  UNL1        0.0662
      4 C          63.0472   85.1689   12.7455 C.3     1  UNL1        0.1600
      5 O          62.5878   86.4203   12.0577 O.3     1  UNL1       -0.4374
      6 C          62.8986   87.7611   12.6541 C.2     1  UNL1        0.4051
      7 O          62.4392   89.0125   11.9665 O.2     1  UNL1       -0.2262
      8 C          63.2655   83.7105   13.0203 C.ar    1  UNL1        0.0138
      9 C          64.4891   83.0226   12.4916 C.ar    1  UNL1       -0.0010
     10 C          64.7073   81.5642   12.7665 C.ar    1  UNL1       -0.0002
     11 C          63.7019   80.7938   13.5701 C.ar    1  UNL1       -0.0000
     12 C          62.4783   81.4817   14.0988 C.ar    1  UNL1       -0.0002
     13 C          62.2601   82.9401   13.8239 C.ar    1  UNL1       -0.0010
     14 C          63.7343   89.4382   15.9936 C.3     1  UNL1        0.0265
     15 C          63.9796   89.1912   14.5346 C.3     1  UNL1        0.1011
     16 C          64.5358   90.2851   13.6719 C.ar    1  UNL1       -0.0042
     17 C          63.8122   90.6977   12.4245 C.ar    1  UNL1       -0.0027
     18 C          64.3683   91.7915   11.5619 C.ar    1  UNL1       -0.0003
     19 C          65.6481   92.4728   11.9466 C.ar    1  UNL1        0.0002
     20 C          66.3718   92.0602   13.1940 C.ar    1  UNL1       -0.0003
     21 C          65.8156   90.9663   14.0567 C.ar    1  UNL1       -0.0027
     22 C          66.2043   93.5666   11.0839 C.ar    1  UNL1        0.0062
     23 C          66.0572   94.9996   11.5020 C.ar    1  UNL1        0.0189
     24 C          66.6134   96.0935   10.6393 C.ar    1  UNL1        0.0784
     25 N          67.3166   95.7543    9.3585 N.ar    1  UNL1       -0.2922
     26 C          67.8728   96.8481    8.4958 C.3     1  UNL1        0.1336
     27 C          67.4637   94.3212    8.9405 C.ar    1  UNL1        0.2610
     28 O          68.1670   93.9820    7.6597 O.2     1  UNL1       -0.2670
     29 C          66.9076   93.2274    9.8032 C.ar    1  UNL1        0.0608
     30 C          62.3528   84.5730   11.5568 C.3     1  UNL1        0.0714
     31 C          62.3772   85.2872   10.2381 C.3     1  UNL1        0.0922
     32 C          63.6103   84.5268    9.8490 C.3     1  UNL1        0.0294
     33 C          61.1441   86.0475   10.6271 C.3     1  UNL1        0.0294
     34 O          62.4016   86.0014    8.9192 O.3     1  UNL1       -0.3866
     35 H          63.1587   85.6917    8.3978 H       1  UNL1        0.2102
@<TRIPOS>BOND
     1    15    14    1
     2    15    16    1
     3    16    17   ar
     4    17    18   ar
     5    18    19   ar
     6    19    22    1
     7    22    23   ar
     8    23    24   ar
     9    24    25   ar
    10    25    26    1
    11    25    27   ar
    12    27    28    2
    13    27    29   ar
    14    19    20   ar
    15    20    21   ar
    16    15     1    1
    17     1     2    1
    18     2     3    1
    19     3     4    1
    20     4    30    1
    21    30    31    1
    22    31    32    1
    23    31    33    1
    24    31    34    1
    25     4     8    1
    26     8     9   ar
    27     9    10   ar
    28    10    11   ar
    29    11    12   ar
    30    12    13   ar
    31     4     5    1
    32     5     6    1
    33     6     7    2
    34    21    16   ar
    35     6     1   am
    36    29    22   ar
    37    13     8   ar
    38    34    35    1
