@<TRIPOS>MOLECULE
*****
 38 43 0 0 0
SMALL
GASTEIGER

@<TRIPOS>ATOM
      1 C          61.9534   87.8350   10.9496 C.3     1  UNL1        0.0522
      2 C          61.3590   89.0068   10.2259 C.3     1  UNL1        0.0065
      3 C          60.4660   88.7826    9.0417 C.3     1  UNL1        0.0004
      4 C          59.5731   88.5584    7.8576 C.3     1  UNL1        0.0000
      5 C          60.1675   87.3866    8.5812 C.3     1  UNL1        0.0005
      6 C          60.7619   86.2149    9.3048 C.3     1  UNL1        0.0095
      7 C          61.6548   86.4390   10.4890 C.3     1  UNL1        0.0824
      8 C          65.3563   91.4944   13.5315 C.ar    1  UNL1        0.0225
      9 C          64.6017   91.7086   12.2529 C.ar    1  UNL1        0.0018
     10 C          63.7331   90.6163   11.7027 C.ar    1  UNL1        0.0045
     11 C          63.6191   89.3100   12.4310 C.ar    1  UNL1        0.0539
     12 C          62.8463   88.0592   12.1337 C.ar    1  UNL1        0.1006
     13 N          63.1234   87.0720   13.2286 N.ar    1  UNL1       -0.0814
     14 O          64.0673   87.7127   14.2026 O.2     1  UNL1       -0.3537
     15 C          64.3736   89.0958   13.7096 C.ar    1  UNL1        0.1766
     16 C          65.2423   90.1880   14.2599 C.ar    1  UNL1        0.0418
     17 C          69.0828   94.0526   16.2609 C.3     1  UNL1        0.0515
     18 C          67.9378   93.7624   15.3363 C.ar    1  UNL1        0.0535
     19 C          67.3442   92.4119   15.0650 C.ar    1  UNL1        0.0349
     20 C          66.2249   92.5865   14.0817 C.ar    1  UNL1        0.1019
     21 N          66.1268   94.0450   13.7454 N.ar    1  UNL1       -0.1730
     22 N          67.1854   94.7717   14.5208 N.ar    1  UNL1       -0.2798
     23 H          67.3564   95.7410   14.4983 H       1  UNL1        0.1886
     24 C          62.2492   85.2673   11.2126 C.2     1  UNL1        0.2261
     25 O          63.3274   84.4523   10.5620 O.2     1  UNL1       -0.2748
     26 N          61.7655   84.9105   12.5870 N.am    1  UNL1       -0.2814
     27 H          61.0579   85.4454   13.0140 H       1  UNL1        0.1549
     28 C          62.3599   83.7388   13.3106 C.ar    1  UNL1        0.0934
     29 C          62.5467   82.3596   12.7514 C.ar    1  UNL1        0.1115
     30 N          63.1742   81.5088   13.8157 N.ar    1  UNL1       -0.2459
     31 C          63.5369   80.0592   13.6858 C.3     1  UNL1        0.1538
     32 N          63.3751   82.3625   15.0327 N.ar    1  UNL1       -0.1632
     33 C          62.8719   83.7406   14.7205 C.ar    1  UNL1        0.1686
     34 C          62.8793   84.9144   15.6543 C.2     1  UNL1        0.2635
     35 N          64.1754   85.5782   16.0142 N.am    1  UNL1       -0.3240
     36 O          61.5907   85.4245   16.2282 O.2     1  UNL1       -0.2686
     37 H          65.0211   85.2435   15.6376 H       1  UNL1        0.1453
     38 H          64.1803   86.3487   16.6271 H       1  UNL1        0.1453
@<TRIPOS>BOND
     1    17    18    1
     2    18    19   ar
     3    19    20   ar
     4    20     8    1
     5     8     9   ar
     6     9    10   ar
     7    10    11   ar
     8    11    12   ar
     9     1    12    1
    10     1     2    1
    11     3     2    1
    12     3     4    1
    13     5     4    1
    14     5     6    1
    15     6     7    1
    16     7    24    1
    17    24    25    2
    18    24    26   am
    19    26    28    1
    20    28    29   ar
    21    29    30   ar
    22    30    31    1
    23    30    32   ar
    24    32    33   ar
    25    33    34    1
    26    34    35   am
    27    34    36    2
    28    12    13   ar
    29    13    14   ar
    30    14    15   ar
    31    15    16   ar
    32    20    21   ar
    33    21    22   ar
    34    22    18   ar
    35    16     8   ar
    36    15    11   ar
    37     7     1    1
    38    33    28   ar
    39     5     3    1
    40    26    27    1
    41    35    37    1
    42    35    38    1
    43    22    23    1
@<TRIPOS>MOLECULE
*****
 38 43 0 0 0
SMALL
GASTEIGER

@<TRIPOS>ATOM
      1 C          64.5064   90.5000   14.5880 C.3     1  UNL1        0.0522
      2 C          65.5787   91.3589   15.1899 C.3     1  UNL1        0.0065
      3 C          66.1696   92.4868   14.3969 C.3     1  UNL1        0.0004
      4 C          66.7603   93.6146   13.6039 C.3     1  UNL1        0.0000
      5 C          65.6880   92.7557   13.0020 C.3     1  UNL1        0.0005
      6 C          64.6157   91.8967   12.4001 C.3     1  UNL1        0.0095
      7 C          64.0248   90.7689   13.1931 C.3     1  UNL1        0.0824
      8 C          63.4357   84.9786   14.6599 C.ar    1  UNL1        0.0225
      9 C          64.1049   85.7556   13.5651 C.ar    1  UNL1        0.0018
     10 C          64.3116   87.2340   13.7131 C.ar    1  UNL1        0.0045
     11 C          63.8492   87.9353   14.9558 C.ar    1  UNL1        0.0539
     12 C          63.9156   89.3722   15.3811 C.ar    1  UNL1        0.1006
     13 N          63.2875   89.4832   16.7387 N.ar    1  UNL1       -0.0814
     14 O          62.8329   88.1149   17.1525 O.2     1  UNL1       -0.3537
     15 C          63.1801   87.1583   16.0506 C.ar    1  UNL1        0.1766
     16 C          62.9733   85.6800   15.9026 C.ar    1  UNL1        0.0418
     17 C          61.1403   80.2721   13.9812 C.3     1  UNL1        0.0515
     18 C          62.1739   81.3369   14.2000 C.ar    1  UNL1        0.0535
     19 C          61.9152   82.8118   14.2885 C.ar    1  UNL1        0.0349
     20 C          63.2290   83.5003   14.5120 C.ar    1  UNL1        0.1019
     21 N          64.2997   82.4509   14.5615 N.ar    1  UNL1       -0.1730
     22 N          63.6476   81.1139   14.3687 N.ar    1  UNL1       -0.2798
     23 H          64.1063   80.2429   14.3553 H       1  UNL1        0.1886
     24 C          62.9525   89.9099   12.5912 C.2     1  UNL1        0.2261
     25 O          61.8348   89.3947   13.4487 O.2     1  UNL1       -0.2748
     26 N          62.9979   89.5661   11.1318 N.am    1  UNL1       -0.2814
     27 H          63.7315   89.9043   10.5690 H       1  UNL1        0.1549
     28 C          61.9255   88.7072   10.5299 C.ar    1  UNL1        0.0934
     29 C          62.1423   87.5344    9.6204 C.ar    1  UNL1        0.1115
     30 N          60.7989   86.9725    9.2602 N.ar    1  UNL1       -0.2459
     31 C          60.5467   85.7923    8.3695 C.3     1  UNL1        0.1538
     32 N          59.7519   87.7983    9.9473 N.ar    1  UNL1       -0.1632
     33 C          60.4482   88.8703   10.7320 C.ar    1  UNL1        0.1686
     34 C          59.7838   89.9210   11.5714 C.2     1  UNL1        0.2635
     35 N          59.1104   89.5394   12.8562 N.am    1  UNL1       -0.3240
     36 O          59.7929   91.3534   11.1259 O.2     1  UNL1       -0.2686
     37 H          59.1044   88.5994   13.1486 H       1  UNL1        0.1453
     38 H          58.6743   90.2290   13.4072 H       1  UNL1        0.1453
@<TRIPOS>BOND
     1    17    18    1
     2    18    19   ar
     3    19    20   ar
     4    20     8    1
     5     8     9   ar
     6     9    10   ar
     7    10    11   ar
     8    11    12   ar
     9     1    12    1
    10     1     2    1
    11     3     2    1
    12     3     4    1
    13     5     4    1
    14     5     6    1
    15     6     7    1
    16     7    24    1
    17    24    25    2
    18    24    26   am
    19    26    28    1
    20    28    29   ar
    21    29    30   ar
    22    30    31    1
    23    30    32   ar
    24    32    33   ar
    25    33    34    1
    26    34    35   am
    27    34    36    2
    28    12    13   ar
    29    13    14   ar
    30    14    15   ar
    31    15    16   ar
    32    20    21   ar
    33    21    22   ar
    34    22    18   ar
    35    16     8   ar
    36    15    11   ar
    37     7     1    1
    38    33    28   ar
    39     5     3    1
    40    26    27    1
    41    35    37    1
    42    35    38    1
    43    22    23    1
@<TRIPOS>MOLECULE
*****
 38 43 0 0 0
SMALL
GASTEIGER

@<TRIPOS>ATOM
      1 C          60.7305   88.9825   10.1871 C.3     1  UNL1        0.0522
      2 C          60.2662   89.9950    9.1824 C.3     1  UNL1        0.0065
      3 C          59.8255   89.5513    7.8191 C.3     1  UNL1        0.0004
      4 C          59.3848   89.1076    6.4557 C.3     1  UNL1        0.0000
      5 C          59.8491   88.0951    7.4603 C.3     1  UNL1        0.0005
      6 C          60.3134   87.0825    8.4649 C.3     1  UNL1        0.0095
      7 C          60.7541   87.5262    9.8283 C.3     1  UNL1        0.0824
      8 C          64.7330   91.6576   13.0958 C.ar    1  UNL1        0.0225
      9 C          64.6949   91.4242   11.6146 C.ar    1  UNL1        0.0018
     10 C          63.5423   90.6859   11.0010 C.ar    1  UNL1        0.0045
     11 C          62.4278   90.1810   11.8687 C.ar    1  UNL1        0.0539
     12 C          61.1712   89.4262   11.5504 C.ar    1  UNL1        0.1006
     13 N          60.4326   89.1932   12.8351 N.ar    1  UNL1       -0.0814
     14 O          61.2327   89.8039   13.9472 O.2     1  UNL1       -0.3537
     15 C          62.4658   90.4144   13.3499 C.ar    1  UNL1        0.1766
     16 C          63.6184   91.1526   13.9635 C.ar    1  UNL1        0.0418
     17 C          69.1317   92.7379   15.8098 C.3     1  UNL1        0.0515
     18 C          67.9074   92.8925   14.9569 C.ar    1  UNL1        0.0535
     19 C          66.9646   91.7951   14.5607 C.ar    1  UNL1        0.0349
     20 C          65.8856   92.3959   13.7094 C.ar    1  UNL1        0.1019
     21 N          66.1614   93.8646   13.5795 N.ar    1  UNL1       -0.1730
     22 N          67.4110   94.1714   14.3505 N.ar    1  UNL1       -0.2798
     23 H          67.8315   95.0569   14.4424 H       1  UNL1        0.1886
     24 C          61.2183   86.5137   10.8329 C.2     1  UNL1        0.2261
     25 O          60.4904   86.3614   12.1355 O.2     1  UNL1       -0.2748
     26 N          62.4105   85.6535   10.5349 N.am    1  UNL1       -0.2814
     27 H          62.8882   85.7535    9.6799 H       1  UNL1        0.1549
     28 C          62.8747   84.6410   11.5395 C.ar    1  UNL1        0.0934
     29 C          62.8498   83.1513   11.3660 C.ar    1  UNL1        0.1115
     30 N          63.4051   82.5300   12.6133 N.ar    1  UNL1       -0.2459
     31 C          63.5643   81.0609   12.8710 C.3     1  UNL1        0.1538
     32 N          63.7732   83.6359   13.5576 N.ar    1  UNL1       -0.1632
     33 C          63.4454   84.9405   12.8939 C.ar    1  UNL1        0.1686
     34 C          63.6521   86.3050   13.4816 C.2     1  UNL1        0.2635
     35 N          63.9354   86.4554   14.9469 N.am    1  UNL1       -0.3240
     36 O          63.5754   87.5191   12.6040 O.2     1  UNL1       -0.2686
     37 H          63.9858   85.6586   15.5229 H       1  UNL1        0.1453
     38 H          64.0711   87.3510   15.3326 H       1  UNL1        0.1453
@<TRIPOS>BOND
     1    17    18    1
     2    18    19   ar
     3    19    20   ar
     4    20     8    1
     5     8     9   ar
     6     9    10   ar
     7    10    11   ar
     8    11    12   ar
     9     1    12    1
    10     1     2    1
    11     3     2    1
    12     3     4    1
    13     5     4    1
    14     5     6    1
    15     6     7    1
    16     7    24    1
    17    24    25    2
    18    24    26   am
    19    26    28    1
    20    28    29   ar
    21    29    30   ar
    22    30    31    1
    23    30    32   ar
    24    32    33   ar
    25    33    34    1
    26    34    35   am
    27    34    36    2
    28    12    13   ar
    29    13    14   ar
    30    14    15   ar
    31    15    16   ar
    32    20    21   ar
    33    21    22   ar
    34    22    18   ar
    35    16     8   ar
    36    15    11   ar
    37     7     1    1
    38    33    28   ar
    39     5     3    1
    40    26    27    1
    41    35    37    1
    42    35    38    1
    43    22    23    1
@<TRIPOS>MOLECULE
*****
 38 43 0 0 0
SMALL
GASTEIGER

@<TRIPOS>ATOM
      1 C          60.9855   88.8560   10.6304 C.3     1  UNL1        0.0522
      2 C          60.2121   89.7369    9.6945 C.3     1  UNL1        0.0065
      3 C          59.7879   89.2165    8.3532 C.3     1  UNL1        0.0004
      4 C          59.3637   88.6960    7.0119 C.3     1  UNL1        0.0000
      5 C          60.1372   87.8151    7.9478 C.3     1  UNL1        0.0005
      6 C          60.9106   86.9343    8.8837 C.3     1  UNL1        0.0095
      7 C          61.3348   87.4547   10.2250 C.3     1  UNL1        0.0824
      8 C          64.9492   91.7002   13.4300 C.ar    1  UNL1        0.0225
      9 C          64.9286   91.3842   11.9638 C.ar    1  UNL1        0.0018
     10 C          63.7845   90.6097   11.3795 C.ar    1  UNL1        0.0045
     11 C          62.6611   90.1512   12.2614 C.ar    1  UNL1        0.0539
     12 C          61.4097   89.3765   11.9718 C.ar    1  UNL1        0.1006
     13 N          60.6569   89.2138   13.2590 N.ar    1  UNL1       -0.0814
     14 O          61.4431   89.8878   14.3442 O.2     1  UNL1       -0.3537
     15 C          62.6817   90.4672   13.7276 C.ar    1  UNL1        0.1766
     16 C          63.8257   91.2417   14.3119 C.ar    1  UNL1        0.0418
     17 C          69.3987   92.9142   16.0009 C.3     1  UNL1        0.0515
     18 C          68.1384   93.0327   15.1960 C.ar    1  UNL1        0.0535
     19 C          67.2263   91.9045   14.8149 C.ar    1  UNL1        0.0349
     20 C          66.0932   92.4747   14.0143 C.ar    1  UNL1        0.1019
     21 N          66.3049   93.9553   13.9007 N.ar    1  UNL1       -0.1730
     22 N          67.5689   94.3001   14.6311 N.ar    1  UNL1       -0.2798
     23 H          67.9567   95.2003   14.7234 H       1  UNL1        0.1886
     24 C          62.1083   86.5739   11.1609 C.2     1  UNL1        0.2261
     25 O          63.1578   87.1669   12.0536 O.2     1  UNL1       -0.2748
     26 N          61.8322   85.1002   11.2042 N.am    1  UNL1       -0.2814
     27 H          61.1433   84.7110   10.6183 H       1  UNL1        0.1549
     28 C          62.6056   84.2194   12.1401 C.ar    1  UNL1        0.0934
     29 C          62.7092   84.3886   13.6268 C.ar    1  UNL1        0.1115
     30 N          63.5789   83.2885   14.1592 N.ar    1  UNL1       -0.2459
     31 C          63.9496   83.0751   15.5969 C.3     1  UNL1        0.1538
     32 N          64.0128   82.4393   13.0013 N.ar    1  UNL1       -0.1632
     33 C          63.4113   83.0146   11.7534 C.ar    1  UNL1        0.1686
     34 C          63.5850   82.4792   10.3631 C.2     1  UNL1        0.2635
     35 N          63.4747   81.0052   10.1079 N.am    1  UNL1       -0.3240
     36 O          63.8689   83.4178    9.2279 O.2     1  UNL1       -0.2686
     37 H          63.2884   80.3892   10.8529 H       1  UNL1        0.1453
     38 H          63.5887   80.6537    9.1953 H       1  UNL1        0.1453
@<TRIPOS>BOND
     1    17    18    1
     2    18    19   ar
     3    19    20   ar
     4    20     8    1
     5     8     9   ar
     6     9    10   ar
     7    10    11   ar
     8    11    12   ar
     9     1    12    1
    10     1     2    1
    11     3     2    1
    12     3     4    1
    13     5     4    1
    14     5     6    1
    15     6     7    1
    16     7    24    1
    17    24    25    2
    18    24    26   am
    19    26    28    1
    20    28    29   ar
    21    29    30   ar
    22    30    31    1
    23    30    32   ar
    24    32    33   ar
    25    33    34    1
    26    34    35   am
    27    34    36    2
    28    12    13   ar
    29    13    14   ar
    30    14    15   ar
    31    15    16   ar
    32    20    21   ar
    33    21    22   ar
    34    22    18   ar
    35    16     8   ar
    36    15    11   ar
    37     7     1    1
    38    33    28   ar
    39     5     3    1
    40    26    27    1
    41    35    37    1
    42    35    38    1
    43    22    23    1
@<TRIPOS>MOLECULE
*****
 38 43 0 0 0
SMALL
GASTEIGER

@<TRIPOS>ATOM
      1 C          62.8745   87.3702   12.1408 C.3     1  UNL1        0.0522
      2 C          63.2181   88.8090   12.3891 C.3     1  UNL1        0.0065
      3 C          64.0194   89.1909   13.5982 C.3     1  UNL1        0.0004
      4 C          64.8208   89.5727   14.8074 C.3     1  UNL1        0.0000
      5 C          64.4772   88.1339   14.5590 C.3     1  UNL1        0.0005
      6 C          64.1336   86.6951   14.3107 C.3     1  UNL1        0.0095
      7 C          63.3322   86.3132   13.1016 C.3     1  UNL1        0.0824
      8 C          59.9662   89.3112    7.7349 C.ar    1  UNL1        0.0225
      9 C          60.6643   90.1226    8.7858 C.ar    1  UNL1        0.0018
     10 C          61.3985   89.4357    9.8990 C.ar    1  UNL1        0.0045
     11 C          61.4345   87.9375    9.9614 C.ar    1  UNL1        0.0539
     12 C          62.0732   86.9884   10.9316 C.ar    1  UNL1        0.1006
     13 N          61.7698   85.5904   10.4804 N.ar    1  UNL1       -0.0814
     14 O          60.9436   85.6755    9.2313 O.2     1  UNL1       -0.3537
     15 C          60.7364   87.1260    8.9105 C.ar    1  UNL1        0.1766
     16 C          60.0023   87.8129    7.7973 C.ar    1  UNL1        0.0418
     17 C          58.9037   92.2939    3.5093 C.3     1  UNL1        0.0515
     18 C          58.7437   91.3691    4.6794 C.ar    1  UNL1        0.0535
     19 C          59.8382   90.9099    5.5965 C.ar    1  UNL1        0.0349
     20 C          59.2320   89.9980    6.6217 C.ar    1  UNL1        0.1019
     21 N          57.7628   89.8936    6.3382 N.ar    1  UNL1       -0.1730
     22 N          57.4610   90.7409    5.1378 N.ar    1  UNL1       -0.2798
     23 H          56.5763   90.8633    4.7235 H       1  UNL1        0.1886
     24 C          62.9886   84.8743   12.8533 C.2     1  UNL1        0.2261
     25 O          61.7639   84.2768   13.4802 O.2     1  UNL1       -0.2748
     26 N          63.8697   84.0331   11.9781 N.am    1  UNL1       -0.2814
     27 H          64.6735   84.4253   11.5666 H       1  UNL1        0.1549
     28 C          63.5261   82.5942   11.7298 C.ar    1  UNL1        0.0934
     29 C          63.5184   81.9071   10.3965 C.ar    1  UNL1        0.1115
     30 N          63.1174   80.4781   10.6138 N.ar    1  UNL1       -0.2459
     31 C          62.9806   79.4292    9.5503 C.3     1  UNL1        0.1538
     32 N          62.8773   80.2822   12.0815 N.ar    1  UNL1       -0.1632
     33 C          63.1299   81.5900   12.7712 C.ar    1  UNL1        0.1686
     34 C          63.0077   81.8483   14.2437 C.2     1  UNL1        0.2635
     35 N          61.7484   81.4758   14.9685 N.am    1  UNL1       -0.3240
     36 O          64.1448   82.4791   14.9914 O.2     1  UNL1       -0.2686
     37 H          61.0021   81.0618   14.4777 H       1  UNL1        0.1453
     38 H          61.6682   81.6453   15.9350 H       1  UNL1        0.1453
@<TRIPOS>BOND
     1    17    18    1
     2    18    19   ar
     3    19    20   ar
     4    20     8    1
     5     8     9   ar
     6     9    10   ar
     7    10    11   ar
     8    11    12   ar
     9     1    12    1
    10     1     2    1
    11     3     2    1
    12     3     4    1
    13     5     4    1
    14     5     6    1
    15     6     7    1
    16     7    24    1
    17    24    25    2
    18    24    26   am
    19    26    28    1
    20    28    29   ar
    21    29    30   ar
    22    30    31    1
    23    30    32   ar
    24    32    33   ar
    25    33    34    1
    26    34    35   am
    27    34    36    2
    28    12    13   ar
    29    13    14   ar
    30    14    15   ar
    31    15    16   ar
    32    20    21   ar
    33    21    22   ar
    34    22    18   ar
    35    16     8   ar
    36    15    11   ar
    37     7     1    1
    38    33    28   ar
    39     5     3    1
    40    26    27    1
    41    35    37    1
    42    35    38    1
    43    22    23    1
@<TRIPOS>MOLECULE
*****
 38 43 0 0 0
SMALL
GASTEIGER

@<TRIPOS>ATOM
      1 C          63.2094   87.9732   14.9242 C.3     1  UNL1        0.0522
      2 C          62.9755   88.6880   16.2220 C.3     1  UNL1        0.0065
      3 C          62.9860   87.9229   17.5121 C.3     1  UNL1        0.0004
      4 C          62.9965   87.1578   18.8022 C.3     1  UNL1        0.0000
      5 C          63.2303   86.4430   17.5044 C.3     1  UNL1        0.0005
      6 C          63.4642   85.7282   16.2066 C.3     1  UNL1        0.0095
      7 C          63.4537   86.4932   14.9164 C.3     1  UNL1        0.0824
      8 C          65.2960   92.4194   12.1828 C.ar    1  UNL1        0.0225
      9 C          65.6109   91.9930   13.5860 C.ar    1  UNL1        0.0018
     10 C          64.9584   90.7718   14.1632 C.ar    1  UNL1        0.0045
     11 C          63.9910   89.9770   13.3371 C.ar    1  UNL1        0.0539
     12 C          63.1989   88.7383   13.6341 C.ar    1  UNL1        0.1006
     13 N          62.3943   88.3992   12.4143 N.ar    1  UNL1       -0.0814
     14 O          62.6893   89.4282   11.3635 O.2     1  UNL1       -0.3537
     15 C          63.6760   90.4034   11.9339 C.ar    1  UNL1        0.1766
     16 C          64.3285   91.6245   11.3567 C.ar    1  UNL1        0.0418
     17 C          67.6927   95.7248    8.8346 C.3     1  UNL1        0.0515
     18 C          67.0501   95.1598   10.0666 C.ar    1  UNL1        0.0535
     19 C          66.4899   93.7761   10.2134 C.ar    1  UNL1        0.0349
     20 C          65.9484   93.6405   11.6056 C.ar    1  UNL1        0.1019
     21 N          66.1739   94.9404   12.3193 N.ar    1  UNL1       -0.1730
     22 N          66.8548   95.8794   11.3682 N.ar    1  UNL1       -0.2798
     23 H          67.1259   96.8054   11.5638 H       1  UNL1        0.1886
     24 C          63.6875   85.7784   13.6186 C.2     1  UNL1        0.2261
     25 O          65.0307   85.1792   13.3239 O.2     1  UNL1       -0.2748
     26 N          62.5783   85.6629   12.6156 N.am    1  UNL1       -0.2814
     27 H          61.6967   86.0562   12.8090 H       1  UNL1        0.1549
     28 C          62.8121   84.9481   11.3177 C.ar    1  UNL1        0.0934
     29 C          62.6839   85.5442    9.9473 C.ar    1  UNL1        0.1115
     30 N          63.0077   84.4762    8.9450 N.ar    1  UNL1       -0.2459
     31 C          63.0039   84.6363    7.4536 C.3     1  UNL1        0.1538
     32 N          63.3362   83.2200    9.6962 N.ar    1  UNL1       -0.1632
     33 C          63.2152   83.5116   11.1625 C.ar    1  UNL1        0.1686
     34 C          63.4553   82.5378   12.2779 C.2     1  UNL1        0.2635
     35 N          64.8574   82.2053   12.6944 N.am    1  UNL1       -0.3240
     36 O          62.2932   81.8965   12.9767 O.2     1  UNL1       -0.2686
     37 H          65.6201   82.6263   12.2357 H       1  UNL1        0.1453
     38 H          65.0150   81.5662   13.4264 H       1  UNL1        0.1453
@<TRIPOS>BOND
     1    17    18    1
     2    18    19   ar
     3    19    20   ar
     4    20     8    1
     5     8     9   ar
     6     9    10   ar
     7    10    11   ar
     8    11    12   ar
     9     1    12    1
    10     1     2    1
    11     3     2    1
    12     3     4    1
    13     5     4    1
    14     5     6    1
    15     6     7    1
    16     7    24    1
    17    24    25    2
    18    24    26   am
    19    26    28    1
    20    28    29   ar
    21    29    30   ar
    22    30    31    1
    23    30    32   ar
    24    32    33   ar
    25    33    34    1
    26    34    35   am
    27    34    36    2
    28    12    13   ar
    29    13    14   ar
    30    14    15   ar
    31    15    16   ar
    32    20    21   ar
    33    21    22   ar
    34    22    18   ar
    35    16     8   ar
    36    15    11   ar
    37     7     1    1
    38    33    28   ar
    39     5     3    1
    40    26    27    1
    41    35    37    1
    42    35    38    1
    43    22    23    1
@<TRIPOS>MOLECULE
*****
 38 43 0 0 0
SMALL
GASTEIGER

@<TRIPOS>ATOM
      1 C          62.4448   94.6875   -2.2961 C.3     1  UNL1        0.0522
      2 C          63.8987   94.4221   -2.5524 C.3     1  UNL1        0.0065
      3 C          64.3604   94.0397   -3.9273 C.3     1  UNL1        0.0004
      4 C          64.8220   93.6572   -5.3024 C.3     1  UNL1        0.0000
      5 C          63.3681   93.9226   -5.0461 C.3     1  UNL1        0.0005
      6 C          61.9141   94.1880   -4.7898 C.3     1  UNL1        0.0095
      7 C          61.4525   94.5704   -3.4149 C.3     1  UNL1        0.0824
      8 C          60.2080   92.8017    2.5078 C.ar    1  UNL1        0.0225
      9 C          60.5292   91.9974    1.2831 C.ar    1  UNL1        0.0018
     10 C          61.1272   92.6672    0.0814 C.ar    1  UNL1        0.0045
     11 C          61.4038   94.1413    0.1045 C.ar    1  UNL1        0.0539
     12 C          61.9833   95.0699   -0.9211 C.ar    1  UNL1        0.1006
     13 N          62.0201   96.4482   -0.3302 N.ar    1  UNL1       -0.0814
     14 O          61.4634   96.3714    1.0605 O.2     1  UNL1       -0.3537
     15 C          61.0825   94.9456    1.3292 C.ar    1  UNL1        0.1766
     16 C          60.4846   94.2759    2.5308 C.ar    1  UNL1        0.0418
     17 C          59.5688   89.6817    6.7195 C.3     1  UNL1        0.0515
     18 C          59.3163   90.6979    5.6454 C.ar    1  UNL1        0.0535
     19 C          60.2719   91.0855    4.5561 C.ar    1  UNL1        0.0349
     20 C          59.6101   92.1320    3.7095 C.ar    1  UNL1        0.1019
     21 N          58.2453   92.3912    4.2755 N.ar    1  UNL1       -0.1730
     22 N          58.0638   91.5048    5.4719 N.ar    1  UNL1       -0.2798
     23 H          57.2631   91.4605    6.0431 H       1  UNL1        0.1886
     24 C          59.9986   94.8358   -3.1586 C.2     1  UNL1        0.2261
     25 O          59.4386   96.2112   -3.3700 O.2     1  UNL1       -0.2748
     26 N          59.1046   93.7258   -2.6909 N.am    1  UNL1       -0.2814
     27 H          59.4721   92.8231   -2.5522 H       1  UNL1        0.1549
     28 C          57.6507   93.9912   -2.4346 C.ar    1  UNL1        0.0934
     29 C          57.0746   95.2398   -1.8355 C.ar    1  UNL1        0.1115
     30 N          55.5855   95.0749   -1.7631 N.ar    1  UNL1       -0.2459
     31 C          54.6115   96.0834   -1.2299 C.3     1  UNL1        0.1538
     32 N          55.2413   93.7242   -2.3175 N.ar    1  UNL1       -0.1632
     33 C          56.5176   93.0545   -2.7325 C.ar    1  UNL1        0.1686
     34 C          56.6395   91.6880   -3.3389 C.2     1  UNL1        0.2635
     35 N          55.8601   90.5413   -2.7666 N.am    1  UNL1       -0.3240
     36 O          57.5409   91.4682   -4.5176 O.2     1  UNL1       -0.2686
     37 H          55.2686   90.6855   -1.9930 H       1  UNL1        0.1453
     38 H          55.9401   89.6444   -3.1647 H       1  UNL1        0.1453
@<TRIPOS>BOND
     1    17    18    1
     2    18    19   ar
     3    19    20   ar
     4    20     8    1
     5     8     9   ar
     6     9    10   ar
     7    10    11   ar
     8    11    12   ar
     9     1    12    1
    10     1     2    1
    11     3     2    1
    12     3     4    1
    13     5     4    1
    14     5     6    1
    15     6     7    1
    16     7    24    1
    17    24    25    2
    18    24    26   am
    19    26    28    1
    20    28    29   ar
    21    29    30   ar
    22    30    31    1
    23    30    32   ar
    24    32    33   ar
    25    33    34    1
    26    34    35   am
    27    34    36    2
    28    12    13   ar
    29    13    14   ar
    30    14    15   ar
    31    15    16   ar
    32    20    21   ar
    33    21    22   ar
    34    22    18   ar
    35    16     8   ar
    36    15    11   ar
    37     7     1    1
    38    33    28   ar
    39     5     3    1
    40    26    27    1
    41    35    37    1
    42    35    38    1
    43    22    23    1
@<TRIPOS>MOLECULE
*****
 38 43 0 0 0
SMALL
GASTEIGER

@<TRIPOS>ATOM
      1 C          60.3960   93.3328    2.3515 C.3     1  UNL1        0.0522
      2 C          59.4742   92.9318    3.4648 C.3     1  UNL1        0.0065
      3 C          59.8917   91.8702    4.4387 C.3     1  UNL1        0.0004
      4 C          60.3092   90.8085    5.4125 C.3     1  UNL1        0.0000
      5 C          61.2311   91.2095    4.2993 C.3     1  UNL1        0.0005
      6 C          62.1530   91.6105    3.1860 C.3     1  UNL1        0.0095
      7 C          61.7355   92.6721    2.2121 C.3     1  UNL1        0.0824
      8 C          57.2182   94.4707   -2.1478 C.ar    1  UNL1        0.0225
      9 C          57.3427   93.1550   -1.4383 C.ar    1  UNL1        0.0018
     10 C          58.2434   93.0285   -0.2453 C.ar    1  UNL1        0.0045
     11 C          59.0194   94.2176    0.2380 C.ar    1  UNL1        0.0539
     12 C          59.9785   94.3945    1.3777 C.ar    1  UNL1        0.1006
     13 N          60.4467   95.8196    1.3724 N.ar    1  UNL1       -0.0814
     14 O          59.7770   96.5234    0.2296 O.2     1  UNL1       -0.3537
     15 C          58.8949   95.5333   -0.4715 C.ar    1  UNL1        0.1766
     16 C          57.9943   95.6599   -1.6644 C.ar    1  UNL1        0.0418
     17 C          53.4097   96.1197   -5.4123 C.3     1  UNL1        0.0515
     18 C          54.5671   95.3553   -4.8412 C.ar    1  UNL1        0.0535
     19 C          55.1982   95.5829   -3.4996 C.ar    1  UNL1        0.0349
     20 C          56.3177   94.5973   -3.3407 C.ar    1  UNL1        0.1019
     21 N          56.3785   93.7605   -4.5841 N.ar    1  UNL1       -0.1730
     22 N          55.2966   94.2290   -5.5115 N.ar    1  UNL1       -0.2798
     23 H          55.0998   93.8617   -6.4034 H       1  UNL1        0.1886
     24 C          62.6573   93.0731    1.0989 C.2     1  UNL1        0.2261
     25 O          64.1386   93.1173    1.3309 O.2     1  UNL1       -0.2748
     26 N          62.0979   93.4299   -0.2464 N.am    1  UNL1       -0.2814
     27 H          61.1257   93.4009   -0.3987 H       1  UNL1        0.1549
     28 C          63.0198   93.8309   -1.3597 C.ar    1  UNL1        0.0934
     29 C          63.2071   93.0998   -2.6558 C.ar    1  UNL1        0.1115
     30 N          64.2193   93.8504   -3.4695 N.ar    1  UNL1       -0.2459
     31 C          64.7075   93.4724   -4.8365 C.3     1  UNL1        0.1538
     32 N          64.6575   95.0456   -2.6760 N.ar    1  UNL1       -0.1632
     33 C          63.9162   95.0336   -1.3721 C.ar    1  UNL1        0.1686
     34 C          64.0481   96.0463   -0.2735 C.2     1  UNL1        0.2635
     35 N          62.8563   96.8526    0.1503 N.am    1  UNL1       -0.3240
     36 O          65.3718   96.2528    0.4012 O.2     1  UNL1       -0.2686
     37 H          61.9876   96.7170   -0.2925 H       1  UNL1        0.1453
     38 H          62.9429   97.5173    0.8714 H       1  UNL1        0.1453
@<TRIPOS>BOND
     1    17    18    1
     2    18    19   ar
     3    19    20   ar
     4    20     8    1
     5     8     9   ar
     6     9    10   ar
     7    10    11   ar
     8    11    12   ar
     9     1    12    1
    10     1     2    1
    11     3     2    1
    12     3     4    1
    13     5     4    1
    14     5     6    1
    15     6     7    1
    16     7    24    1
    17    24    25    2
    18    24    26   am
    19    26    28    1
    20    28    29   ar
    21    29    30   ar
    22    30    31    1
    23    30    32   ar
    24    32    33   ar
    25    33    34    1
    26    34    35   am
    27    34    36    2
    28    12    13   ar
    29    13    14   ar
    30    14    15   ar
    31    15    16   ar
    32    20    21   ar
    33    21    22   ar
    34    22    18   ar
    35    16     8   ar
    36    15    11   ar
    37     7     1    1
    38    33    28   ar
    39     5     3    1
    40    26    27    1
    41    35    37    1
    42    35    38    1
    43    22    23    1
