@<TRIPOS>MOLECULE
*****
 27 29 0 0 0
SMALL
GASTEIGER

@<TRIPOS>ATOM
      1 C          63.6641   86.4580   15.5362 C.ar    1  UNL1        0.1534
      2 C          63.9470   87.2442   14.2904 C.ar    1  UNL1        0.0351
      3 C          63.8652   88.7417   14.3139 C.ar    1  UNL1        0.0722
      4 CL         64.1480   89.5279   13.0681 Cl      1  UNL1       -0.0809
      5 C          63.5005   89.4531   15.5831 C.ar    1  UNL1        0.0577
      6 C          63.2177   88.6670   16.8289 C.ar    1  UNL1        0.0462
      7 C          63.2994   87.1694   16.8054 C.ar    1  UNL1        0.1602
      8 F          63.0166   86.3832   18.0512 F       1  UNL1       -0.2027
      9 O          65.1865   85.0455   15.1038 O.2     1  UNL1       -0.1498
     10 S          63.7459   84.9604   15.5127 S.O2    1  UNL1        0.0772
     11 O          62.3052   84.8753   15.9217 O.2     1  UNL1       -0.1498
     12 N          63.8277   83.4628   15.4893 N.pl3   1  UNL1       -0.1936
     13 H          64.1647   82.9759   16.2758 H       1  UNL1        0.1758
     14 C          63.3959   82.7071   14.2675 C.ar    1  UNL1        0.1786
     15 N          63.3062   81.2153   14.1395 N.ar    1  UNL1       -0.2214
     16 C          62.8330   80.8968   12.7522 C.ar    1  UNL1        0.1079
     17 C          62.6301   82.1918   12.0228 C.ar    1  UNL1        0.0588
     18 S          62.9781   83.3107   12.9595 S.2     1  UNL1       -0.0497
     19 N          63.4187   90.9508   15.6066 N.pl3   1  UNL1       -0.3319
     20 H          62.6638   91.4094   15.1719 H       1  UNL1        0.1468
     21 C          64.4872   91.7496   16.2923 C.3     1  UNL1        0.0871
     22 C          65.7269   92.1418   15.5444 C.3     1  UNL1        0.0245
     23 C          65.7968   91.9545   14.0578 C.3     1  UNL1        0.0338
     24 C          67.0365   92.3467   13.3100 C.3     1  UNL1        0.1422
     25 O          68.2062   92.9264   14.0487 O.3     1  UNL1       -0.3538
     26 C          68.1363   93.1138   15.5353 C.3     1  UNL1        0.1422
     27 C          66.8966   92.7215   16.2831 C.3     1  UNL1        0.0338
@<TRIPOS>BOND
     1     9    10    2
     2    10    11    2
     3    10    12    1
     4    12    14    1
     5    14    15   ar
     6    15    16   ar
     7    16    17   ar
     8    17    18   ar
     9    10     1    1
    10     1     2   ar
    11     2     3   ar
    12     3     4    1
    13     3     5   ar
    14     5    19    1
    15    19    21    1
    16    21    22    1
    17    22    23    1
    18    23    24    1
    19    24    25    1
    20    25    26    1
    21    26    27    1
    22     5     6   ar
    23     6     7   ar
    24     7     8    1
    25    18    14   ar
    26     7     1   ar
    27    27    22    1
    28    12    13    1
    29    19    20    1
@<TRIPOS>MOLECULE
*****
 27 29 0 0 0
SMALL
GASTEIGER

@<TRIPOS>ATOM
      1 C          62.9992   90.1734   11.9106 C.ar    1  UNL1        0.1534
      2 C          63.6656   90.2456   13.2524 C.ar    1  UNL1        0.0351
      3 C          64.7910   91.2108   13.4799 C.ar    1  UNL1        0.0722
      4 CL         65.4575   91.2830   14.8218 Cl      1  UNL1       -0.0809
      5 C          65.2499   92.1039   12.3656 C.ar    1  UNL1        0.0577
      6 C          64.5835   92.0317   11.0237 C.ar    1  UNL1        0.0462
      7 C          63.4581   91.0665   10.7962 C.ar    1  UNL1        0.1602
      8 F          62.7916   90.9943    9.4543 F       1  UNL1       -0.2027
      9 O          60.9285   90.3564   11.4879 O.2     1  UNL1       -0.1498
     10 S          61.8737   89.2082   11.6830 S.O2    1  UNL1        0.0772
     11 O          62.8189   88.0600   11.8782 O.2     1  UNL1       -0.1498
     12 N          60.7483   88.2430   11.4555 N.pl3   1  UNL1       -0.1936
     13 H          60.1964   87.9428   12.2135 H       1  UNL1        0.1758
     14 C          60.4637   87.7352   10.0730 C.ar    1  UNL1        0.1786
     15 N          59.7285   88.4759    8.9956 N.ar    1  UNL1       -0.2214
     16 C          59.6748   87.5960    7.7820 C.ar    1  UNL1        0.1079
     17 C          60.3768   86.3114    8.1094 C.ar    1  UNL1        0.0588
     18 S          60.8644   86.3974    9.5254 S.2     1  UNL1       -0.0497
     19 N          66.3754   93.0692   12.5931 N.pl3   1  UNL1       -0.3319
     20 H          67.2203   92.7556   12.9895 H       1  UNL1        0.1468
     21 C          66.2136   94.5121   12.2167 C.3     1  UNL1        0.0871
     22 C          66.6199   94.9811   10.8510 C.3     1  UNL1        0.0245
     23 C          67.3272   94.0452    9.9163 C.3     1  UNL1        0.0338
     24 C          67.7334   94.5143    8.5507 C.3     1  UNL1        0.1422
     25 O          67.4324   95.9192    8.1198 O.3     1  UNL1       -0.3538
     26 C          66.7251   96.8551    9.0546 C.3     1  UNL1        0.1422
     27 C          66.3188   96.3860   10.4202 C.3     1  UNL1        0.0338
@<TRIPOS>BOND
     1     9    10    2
     2    10    11    2
     3    10    12    1
     4    12    14    1
     5    14    15   ar
     6    15    16   ar
     7    16    17   ar
     8    17    18   ar
     9    10     1    1
    10     1     2   ar
    11     2     3   ar
    12     3     4    1
    13     3     5   ar
    14     5    19    1
    15    19    21    1
    16    21    22    1
    17    22    23    1
    18    23    24    1
    19    24    25    1
    20    25    26    1
    21    26    27    1
    22     5     6   ar
    23     6     7   ar
    24     7     8    1
    25    18    14   ar
    26     7     1   ar
    27    27    22    1
    28    12    13    1
    29    19    20    1
@<TRIPOS>MOLECULE
*****
 27 29 0 0 0
SMALL
GASTEIGER

@<TRIPOS>ATOM
      1 C          63.7264   90.6765   11.9342 C.ar    1  UNL1        0.1534
      2 C          62.7661   90.6838   10.7819 C.ar    1  UNL1        0.0351
      3 C          61.9177   89.4782   10.5050 C.ar    1  UNL1        0.0722
      4 CL         60.9574   89.4855    9.3527 Cl      1  UNL1       -0.0809
      5 C          62.0296   88.2653   11.3805 C.ar    1  UNL1        0.0577
      6 C          62.9898   88.2580   12.5327 C.ar    1  UNL1        0.0462
      7 C          63.8382   89.4636   12.8096 C.ar    1  UNL1        0.1602
      8 F          64.7986   89.4563   13.9619 F       1  UNL1       -0.2027
      9 O          64.0903   91.8971   13.6306 O.2     1  UNL1       -0.1498
     10 S          64.5749   91.8821   12.2111 S.O2    1  UNL1        0.0772
     11 O          65.0594   91.8672   10.7916 O.2     1  UNL1       -0.1498
     12 N          65.4233   93.0877   12.4880 N.pl3   1  UNL1       -0.1936
     13 H          65.2624   93.9261   11.9976 H       1  UNL1        0.1758
     14 C          66.5169   93.0160   13.5122 C.ar    1  UNL1        0.1786
     15 N          66.7225   93.9704   14.6509 N.ar    1  UNL1       -0.2214
     16 C          67.9296   93.5215   15.4199 C.ar    1  UNL1        0.1079
     17 C          68.4701   92.2895   14.7564 C.ar    1  UNL1        0.0588
     18 S          67.5970   91.9771   13.5773 S.2     1  UNL1       -0.0497
     19 N          61.1811   87.0597   11.1036 N.pl3   1  UNL1       -0.3319
     20 H          60.2872   86.9832   11.5090 H       1  UNL1        0.1468
     21 C          61.6945   85.9707   10.2089 C.3     1  UNL1        0.0871
     22 C          62.5865   84.9008   10.7656 C.3     1  UNL1        0.0245
     23 C          62.5961   84.6244   12.2398 C.3     1  UNL1        0.0338
     24 C          63.4881   83.5545   12.7964 C.3     1  UNL1        0.1422
     25 O          64.3703   82.7611   11.8788 O.3     1  UNL1       -0.3538
     26 C          64.3606   83.0375   10.4045 C.3     1  UNL1        0.1422
     27 C          63.4687   84.1073    9.8479 C.3     1  UNL1        0.0338
@<TRIPOS>BOND
     1     9    10    2
     2    10    11    2
     3    10    12    1
     4    12    14    1
     5    14    15   ar
     6    15    16   ar
     7    16    17   ar
     8    17    18   ar
     9    10     1    1
    10     1     2   ar
    11     2     3   ar
    12     3     4    1
    13     3     5   ar
    14     5    19    1
    15    19    21    1
    16    21    22    1
    17    22    23    1
    18    23    24    1
    19    24    25    1
    20    25    26    1
    21    26    27    1
    22     5     6   ar
    23     6     7   ar
    24     7     8    1
    25    18    14   ar
    26     7     1   ar
    27    27    22    1
    28    12    13    1
    29    19    20    1
@<TRIPOS>MOLECULE
*****
 27 29 0 0 0
SMALL
GASTEIGER

@<TRIPOS>ATOM
      1 C          62.5281   89.8160   11.9224 C.ar    1  UNL1        0.1534
      2 C          63.0979   89.8785   13.3084 C.ar    1  UNL1        0.0351
      3 C          64.1924   90.8538   13.6260 C.ar    1  UNL1        0.0722
      4 CL         64.7623   90.9163   15.0122 Cl      1  UNL1       -0.0809
      5 C          64.7171   91.7665   12.5575 C.ar    1  UNL1        0.0577
      6 C          64.1472   91.7039   11.1714 C.ar    1  UNL1        0.0462
      7 C          63.0527   90.7287   10.8538 C.ar    1  UNL1        0.1602
      8 F          62.4828   90.6661    9.4677 F       1  UNL1       -0.2027
      9 O          62.4339   87.7232   11.5887 O.2     1  UNL1       -0.1498
     10 S          61.4335   88.8407   11.6047 S.O2    1  UNL1        0.0772
     11 O          60.4331   89.9582   11.6208 O.2     1  UNL1       -0.1498
     12 N          60.3390   87.8654   11.2871 N.pl3   1  UNL1       -0.1936
     13 H          59.7359   87.5531   11.9998 H       1  UNL1        0.1758
     14 C          60.1634   87.3661    9.8835 C.ar    1  UNL1        0.1786
     15 N          60.7604   86.1143    9.3119 N.ar    1  UNL1       -0.2214
     16 C          60.3259   86.0054    7.8803 C.ar    1  UNL1        0.1079
     17 C          59.4604   87.1899    7.5672 C.ar    1  UNL1        0.0588
     18 S          59.3599   88.0309    8.8053 S.2     1  UNL1       -0.0497
     19 N          65.8116   92.7417   12.8751 N.pl3   1  UNL1       -0.3319
     20 H          66.3608   92.6194   13.6830 H       1  UNL1        0.1468
     21 C          66.0695   93.9034   11.9619 C.3     1  UNL1        0.0871
     22 C          66.8307   93.6994   10.6855 C.3     1  UNL1        0.0245
     23 C          67.6506   92.4585   10.4913 C.3     1  UNL1        0.0338
     24 C          68.4117   92.2546    9.2150 C.3     1  UNL1        0.1422
     25 O          68.3529   93.2917    8.1328 O.3     1  UNL1       -0.3538
     26 C          67.5330   94.5326    8.3270 C.3     1  UNL1        0.1422
     27 C          66.7718   94.7365    9.6033 C.3     1  UNL1        0.0338
@<TRIPOS>BOND
     1     9    10    2
     2    10    11    2
     3    10    12    1
     4    12    14    1
     5    14    15   ar
     6    15    16   ar
     7    16    17   ar
     8    17    18   ar
     9    10     1    1
    10     1     2   ar
    11     2     3   ar
    12     3     4    1
    13     3     5   ar
    14     5    19    1
    15    19    21    1
    16    21    22    1
    17    22    23    1
    18    23    24    1
    19    24    25    1
    20    25    26    1
    21    26    27    1
    22     5     6   ar
    23     6     7   ar
    24     7     8    1
    25    18    14   ar
    26     7     1   ar
    27    27    22    1
    28    12    13    1
    29    19    20    1
@<TRIPOS>MOLECULE
*****
 27 29 0 0 0
SMALL
GASTEIGER

@<TRIPOS>ATOM
      1 C          64.8150   91.7262   11.8954 C.ar    1  UNL1        0.1534
      2 C          63.8582   91.5596   10.7523 C.ar    1  UNL1        0.0351
      3 C          62.8710   90.4304   10.7590 C.ar    1  UNL1        0.0722
      4 CL         61.9142   90.2638    9.6159 Cl      1  UNL1       -0.0809
      5 C          62.8406   89.4676   11.9089 C.ar    1  UNL1        0.0577
      6 C          63.7974   89.6342   13.0520 C.ar    1  UNL1        0.0462
      7 C          64.7846   90.7635   13.0452 C.ar    1  UNL1        0.1602
      8 F          65.7415   90.9301   14.1884 F       1  UNL1       -0.2027
      9 O          66.2884   92.4224   10.5373 O.2     1  UNL1       -0.1498
     10 S          65.8023   92.8555   11.8886 S.O2    1  UNL1        0.0772
     11 O          65.3162   93.2886   13.2399 O.2     1  UNL1       -0.1498
     12 N          66.7896   93.9848   11.8819 N.pl3   1  UNL1       -0.1936
     13 H          67.4616   94.0553   12.5978 H       1  UNL1        0.1758
     14 C          66.7529   95.0065   10.7842 C.ar    1  UNL1        0.1786
     15 N          67.7645   95.1588    9.6872 N.ar    1  UNL1       -0.2214
     16 C          67.3349   96.3017    8.8159 C.ar    1  UNL1        0.1079
     17 C          66.0578   96.8559    9.3745 C.ar    1  UNL1        0.0588
     18 S          65.6981   96.0554   10.5910 S.2     1  UNL1       -0.0497
     19 N          61.8533   88.3383   11.9156 N.pl3   1  UNL1       -0.3319
     20 H          60.9711   88.4583   12.3357 H       1  UNL1        0.1468
     21 C          62.2103   87.0263   11.2824 C.3     1  UNL1        0.0871
     22 C          61.6012   86.6376    9.9678 C.3     1  UNL1        0.0245
     23 C          60.2017   87.0623    9.6348 C.3     1  UNL1        0.0338
     24 C          59.5928   86.6737    8.3203 C.3     1  UNL1        0.1422
     25 O          60.3833   85.8602    7.3387 O.3     1  UNL1       -0.3538
     26 C          61.7828   85.4355    7.6717 C.3     1  UNL1        0.1422
     27 C          62.3918   85.8241    8.9863 C.3     1  UNL1        0.0338
@<TRIPOS>BOND
     1     9    10    2
     2    10    11    2
     3    10    12    1
     4    12    14    1
     5    14    15   ar
     6    15    16   ar
     7    16    17   ar
     8    17    18   ar
     9    10     1    1
    10     1     2   ar
    11     2     3   ar
    12     3     4    1
    13     3     5   ar
    14     5    19    1
    15    19    21    1
    16    21    22    1
    17    22    23    1
    18    23    24    1
    19    24    25    1
    20    25    26    1
    21    26    27    1
    22     5     6   ar
    23     6     7   ar
    24     7     8    1
    25    18    14   ar
    26     7     1   ar
    27    27    22    1
    28    12    13    1
    29    19    20    1
@<TRIPOS>MOLECULE
*****
 27 29 0 0 0
SMALL
GASTEIGER

@<TRIPOS>ATOM
      1 C          63.7714   90.9206   11.7218 C.ar    1  UNL1        0.1534
      2 C          62.7645   90.8184   10.6148 C.ar    1  UNL1        0.0351
      3 C          61.9054   89.5948   10.4930 C.ar    1  UNL1        0.0722
      4 CL         60.8984   89.4924    9.3860 Cl      1  UNL1       -0.0809
      5 C          62.0534   88.4734   11.4783 C.ar    1  UNL1        0.0577
      6 C          63.0604   88.5757   12.5853 C.ar    1  UNL1        0.0462
      7 C          63.9194   89.7993   12.7070 C.ar    1  UNL1        0.1602
      8 F          64.9264   89.9016   13.8141 F       1  UNL1       -0.2027
      9 O          64.7823   92.1861   10.3519 O.2     1  UNL1       -0.1498
     10 S          64.6305   92.1443   11.8436 S.O2    1  UNL1        0.0772
     11 O          64.4787   92.1024   13.3352 O.2     1  UNL1       -0.1498
     12 N          65.4895   93.3678   11.9653 N.pl3   1  UNL1       -0.1936
     13 H          65.3766   93.9742   12.7326 H       1  UNL1        0.1758
     14 C          66.5207   93.6676   10.9179 C.ar    1  UNL1        0.1786
     15 N          67.6343   92.7578   10.4911 N.ar    1  UNL1       -0.2214
     16 C          68.4210   93.4577    9.4229 C.ar    1  UNL1        0.1079
     17 C          67.7936   94.8001    9.1894 C.ar    1  UNL1        0.0588
     18 S          66.6191   94.9298   10.1134 S.2     1  UNL1       -0.0497
     19 N          61.1943   87.2498   11.3565 N.pl3   1  UNL1       -0.3319
     20 H          60.3684   87.1734   11.8868 H       1  UNL1        0.1468
     21 C          61.5937   86.1425   10.4267 C.3     1  UNL1        0.0871
     22 C          62.5476   85.0816   10.8899 C.3     1  UNL1        0.0245
     23 C          63.2904   84.2508    9.8860 C.3     1  UNL1        0.0338
     24 C          64.2443   83.1900   10.3492 C.3     1  UNL1        0.1422
     25 O          64.4554   82.9599   11.8163 O.3     1  UNL1       -0.3538
     26 C          63.7127   83.7907   12.8203 C.3     1  UNL1        0.1422
     27 C          62.7587   84.8516   12.3571 C.3     1  UNL1        0.0338
@<TRIPOS>BOND
     1     9    10    2
     2    10    11    2
     3    10    12    1
     4    12    14    1
     5    14    15   ar
     6    15    16   ar
     7    16    17   ar
     8    17    18   ar
     9    10     1    1
    10     1     2   ar
    11     2     3   ar
    12     3     4    1
    13     3     5   ar
    14     5    19    1
    15    19    21    1
    16    21    22    1
    17    22    23    1
    18    23    24    1
    19    24    25    1
    20    25    26    1
    21    26    27    1
    22     5     6   ar
    23     6     7   ar
    24     7     8    1
    25    18    14   ar
    26     7     1   ar
    27    27    22    1
    28    12    13    1
    29    19    20    1
@<TRIPOS>MOLECULE
*****
 27 29 0 0 0
SMALL
GASTEIGER

@<TRIPOS>ATOM
      1 C          64.7998   91.6665   11.9564 C.ar    1  UNL1        0.1534
      2 C          64.8316   90.6795   13.0855 C.ar    1  UNL1        0.0351
      3 C          63.8625   89.5348   13.1084 C.ar    1  UNL1        0.0722
      4 CL         63.8942   88.5477   14.2374 Cl      1  UNL1       -0.0809
      5 C          62.8617   89.3771   12.0022 C.ar    1  UNL1        0.0577
      6 C          62.8299   90.3642   10.8732 C.ar    1  UNL1        0.0462
      7 C          63.7989   91.5089   10.8503 C.ar    1  UNL1        0.1602
      8 F          63.7672   92.4960    9.7213 F       1  UNL1       -0.2027
      9 O          66.2413   92.3841   10.5755 O.2     1  UNL1       -0.1498
     10 S          65.7689   92.8113   11.9335 S.O2    1  UNL1        0.0772
     11 O          65.2964   93.2385   13.2915 O.2     1  UNL1       -0.1498
     12 N          66.7379   93.9560   11.9105 N.pl3   1  UNL1       -0.1936
     13 H          67.3841   94.0687   12.6446 H       1  UNL1        0.1758
     14 C          66.7224   94.9290   10.7690 C.ar    1  UNL1        0.1786
     15 N          67.7747   95.0605    9.7082 N.ar    1  UNL1       -0.2214
     16 C          67.3545   96.1541    8.7715 C.ar    1  UNL1        0.1079
     17 C          66.0424   96.6985    9.2533 C.ar    1  UNL1        0.0588
     18 S          65.6518   95.9413   10.4879 S.2     1  UNL1       -0.0497
     19 N          61.8926   88.2324   12.0252 N.pl3   1  UNL1       -0.3319
     20 H          61.9808   87.5263   12.7056 H       1  UNL1        0.1468
     21 C          60.7891   88.1634   11.0115 C.3     1  UNL1        0.0871
     22 C          60.9311   87.2805    9.8072 C.3     1  UNL1        0.0245
     23 C          59.7794   87.1116    8.8611 C.3     1  UNL1        0.0338
     24 C          59.9214   86.2287    7.6568 C.3     1  UNL1        0.1422
     25 O          61.2151   85.5146    7.3987 O.3     1  UNL1       -0.3538
     26 C          62.3667   85.6835    8.3448 C.3     1  UNL1        0.1422
     27 C          62.2247   86.5664    9.5491 C.3     1  UNL1        0.0338
@<TRIPOS>BOND
     1     9    10    2
     2    10    11    2
     3    10    12    1
     4    12    14    1
     5    14    15   ar
     6    15    16   ar
     7    16    17   ar
     8    17    18   ar
     9    10     1    1
    10     1     2   ar
    11     2     3   ar
    12     3     4    1
    13     3     5   ar
    14     5    19    1
    15    19    21    1
    16    21    22    1
    17    22    23    1
    18    23    24    1
    19    24    25    1
    20    25    26    1
    21    26    27    1
    22     5     6   ar
    23     6     7   ar
    24     7     8    1
    25    18    14   ar
    26     7     1   ar
    27    27    22    1
    28    12    13    1
    29    19    20    1
@<TRIPOS>MOLECULE
*****
 27 29 0 0 0
SMALL
GASTEIGER

@<TRIPOS>ATOM
      1 C          63.4128   85.2637   15.2535 C.ar    1  UNL1        0.1534
      2 C          63.1306   85.9973   16.5310 C.ar    1  UNL1        0.0351
      3 C          63.3248   87.4830   16.6013 C.ar    1  UNL1        0.0722
      4 CL         63.0425   88.2167   17.8789 Cl      1  UNL1       -0.0809
      5 C          63.8011   88.2351   15.3941 C.ar    1  UNL1        0.0577
      6 C          64.0834   87.5015   14.1166 C.ar    1  UNL1        0.0462
      7 C          63.8892   86.0159   14.0462 C.ar    1  UNL1        0.1602
      8 F          64.1714   85.2822   12.7686 F       1  UNL1       -0.2027
      9 O          61.7426   83.9792   15.0077 O.2     1  UNL1       -0.1498
     10 S          63.2187   83.7780   15.1831 S.O2    1  UNL1        0.0772
     11 O          64.6947   83.5767   15.3585 O.2     1  UNL1       -0.1498
     12 N          63.0245   82.2923   15.1127 N.pl3   1  UNL1       -0.1936
     13 H          62.9479   81.7661   15.9413 H       1  UNL1        0.1758
     14 C          62.9469   81.6083   13.7799 C.ar    1  UNL1        0.1786
     15 N          63.3281   82.2067   12.4583 N.ar    1  UNL1       -0.2214
     16 C          63.0912   81.1741   11.3964 C.ar    1  UNL1        0.1079
     17 C          62.5636   79.9375   12.0618 C.ar    1  UNL1        0.0588
     18 S          62.4744   80.2059   13.5349 S.2     1  UNL1       -0.0497
     19 N          63.9953   89.7209   15.4645 N.pl3   1  UNL1       -0.3319
     20 H          64.2091   90.1492   16.3248 H       1  UNL1        0.1468
     21 C          63.8637   90.5540   14.2241 C.3     1  UNL1        0.0871
     22 C          65.0500   91.3045   13.6953 C.3     1  UNL1        0.0245
     23 C          66.3457   91.2879   14.4510 C.3     1  UNL1        0.0338
     24 C          67.5319   92.0383   13.9222 C.3     1  UNL1        0.1422
     25 O          67.4225   92.8052   12.6377 O.3     1  UNL1       -0.3538
     26 C          66.1269   92.8218   11.8820 C.3     1  UNL1        0.1422
     27 C          64.9407   92.0714   12.4109 C.3     1  UNL1        0.0338
@<TRIPOS>BOND
     1     9    10    2
     2    10    11    2
     3    10    12    1
     4    12    14    1
     5    14    15   ar
     6    15    16   ar
     7    16    17   ar
     8    17    18   ar
     9    10     1    1
    10     1     2   ar
    11     2     3   ar
    12     3     4    1
    13     3     5   ar
    14     5    19    1
    15    19    21    1
    16    21    22    1
    17    22    23    1
    18    23    24    1
    19    24    25    1
    20    25    26    1
    21    26    27    1
    22     5     6   ar
    23     6     7   ar
    24     7     8    1
    25    18    14   ar
    26     7     1   ar
    27    27    22    1
    28    12    13    1
    29    19    20    1
@<TRIPOS>MOLECULE
*****
 27 29 0 0 0
SMALL
GASTEIGER

@<TRIPOS>ATOM
      1 C          62.9655   88.7825   12.0366 C.ar    1  UNL1        0.1534
      2 C          63.6723   89.1773   13.2993 C.ar    1  UNL1        0.0351
      3 C          64.3266   90.5231   13.4032 C.ar    1  UNL1        0.0722
      4 CL         65.0334   90.9180   14.6659 Cl      1  UNL1       -0.0809
      5 C          64.2741   91.4740   12.2443 C.ar    1  UNL1        0.0577
      6 C          63.5673   91.0791   10.9816 C.ar    1  UNL1        0.0462
      7 C          62.9130   89.7334   10.8777 C.ar    1  UNL1        0.1602
      8 F          62.2062   89.3384    9.6149 F       1  UNL1       -0.2027
      9 O          63.5044   86.8060   12.5873 O.2     1  UNL1       -0.1498
     10 S          62.3112   87.4366   11.9327 S.O2    1  UNL1        0.0772
     11 O          61.1180   88.0672   11.2781 O.2     1  UNL1       -0.1498
     12 N          61.6569   86.0909   11.8289 N.pl3   1  UNL1       -0.1936
     13 H          60.7025   85.9894   12.0478 H       1  UNL1        0.1758
     14 C          62.4569   84.8997   11.3915 C.ar    1  UNL1        0.1786
     15 N          63.1080   84.7184   10.0524 N.ar    1  UNL1       -0.2214
     16 C          63.7997   83.3874   10.0497 C.ar    1  UNL1        0.1079
     17 C          63.5762   82.7461   11.3872 C.ar    1  UNL1        0.0588
     18 S          62.7462   83.6809   12.2165 S.2     1  UNL1       -0.0497
     19 N          64.9284   92.8198   12.3482 N.pl3   1  UNL1       -0.3319
     20 H          64.3820   93.6210   12.5175 H       1  UNL1        0.1468
     21 C          66.4152   92.9448   12.1940 C.3     1  UNL1        0.0871
     22 C          67.0163   93.1121   10.8299 C.3     1  UNL1        0.0245
     23 C          68.0102   92.1109   10.3203 C.3     1  UNL1        0.0338
     24 C          68.6114   92.2784    8.9563 C.3     1  UNL1        0.1422
     25 O          68.2186   93.4470    8.1019 O.3     1  UNL1       -0.3538
     26 C          67.2247   94.4482    8.6115 C.3     1  UNL1        0.1422
     27 C          66.6236   94.2808    9.9755 C.3     1  UNL1        0.0338
@<TRIPOS>BOND
     1     9    10    2
     2    10    11    2
     3    10    12    1
     4    12    14    1
     5    14    15   ar
     6    15    16   ar
     7    16    17   ar
     8    17    18   ar
     9    10     1    1
    10     1     2   ar
    11     2     3   ar
    12     3     4    1
    13     3     5   ar
    14     5    19    1
    15    19    21    1
    16    21    22    1
    17    22    23    1
    18    23    24    1
    19    24    25    1
    20    25    26    1
    21    26    27    1
    22     5     6   ar
    23     6     7   ar
    24     7     8    1
    25    18    14   ar
    26     7     1   ar
    27    27    22    1
    28    12    13    1
    29    19    20    1
