@<TRIPOS>MOLECULE
*****
 22 25 0 0 0
SMALL
GASTEIGER

@<TRIPOS>ATOM
      1 O          66.7818   95.1342   11.7781 O.3     1  UNL1       -0.5055
      2 C          66.1706   93.8728   12.3123 C.ar    1  UNL1        0.1337
      3 C          66.5226   93.3935   13.6893 C.ar    1  UNL1        0.0371
      4 C          65.9114   92.1321   14.2235 C.ar    1  UNL1        0.0096
      5 C          64.9481   91.3501   13.3807 C.ar    1  UNL1        0.0291
      6 S          64.1923   90.0799   13.6366 S.2     1  UNL1       -0.0902
      7 C          63.3732   89.7742   12.4178 C.ar    1  UNL1        0.0195
      8 C          63.6227   90.8554   11.4085 C.ar    1  UNL1       -0.0169
      9 C          64.5961   91.8294   12.0036 C.ar    1  UNL1        0.0053
     10 C          65.2073   93.0907   11.4695 C.ar    1  UNL1        0.0368
     11 C          62.9313   90.8135   10.0781 C.3     1  UNL1        0.0439
     12 C          61.9905   89.6903    9.7568 C.3     1  UNL1        0.0774
     13 N          61.7410   88.6091   10.7661 N.3     1  UNL1       -0.2644
     14 C          62.4323   88.6511   12.0967 C.3     1  UNL1        0.1056
     15 H          67.3835   95.6227   12.3047 H       1  UNL1        0.2922
     16 C          60.8001   87.4858   10.4449 C.3     1  UNL1        0.1010
     17 C          61.0514   86.6156    9.2493 C.ar    1  UNL1        0.0131
     18 C          62.4101   86.0200    9.0275 C.ar    1  UNL1        0.0002
     19 C          62.6615   85.1498    7.8318 C.ar    1  UNL1        0.0204
     20 C          61.5542   84.8752    6.8581 C.ar    1  UNL1        0.0989
     21 N          60.1955   85.4707    7.0799 N.ar    1  UNL1       -0.2426
     22 C          59.9441   86.3409    8.2755 C.ar    1  UNL1        0.0959
@<TRIPOS>BOND
     1     1     2    1
     2     2     3   ar
     3     3     4   ar
     4     4     5   ar
     5     5     6   ar
     6     6     7   ar
     7     7     8   ar
     8     8     9   ar
     9     9    10   ar
    10     8    11    1
    11    11    12    1
    12    12    13    1
    13    13    16    1
    14    16    17    1
    15    17    18   ar
    16    18    19   ar
    17    19    20   ar
    18    20    21   ar
    19    21    22   ar
    20    13    14    1
    21    10     2   ar
    22    22    17   ar
    23     9     5   ar
    24    14     7    1
    25     1    15    1
@<TRIPOS>MOLECULE
*****
 22 25 0 0 0
SMALL
GASTEIGER

@<TRIPOS>ATOM
      1 O          58.5346   89.3500    6.3301 O.3     1  UNL1       -0.5055
      2 C          59.2765   88.4969    7.3160 C.ar    1  UNL1        0.1337
      3 C          59.2159   87.0020    7.2093 C.ar    1  UNL1        0.0371
      4 C          59.9578   86.1490    8.1952 C.ar    1  UNL1        0.0096
      5 C          60.7603   86.7909    9.2878 C.ar    1  UNL1        0.0291
      6 S          61.5896   86.2130   10.3961 S.2     1  UNL1       -0.0902
      7 C          62.1628   87.3509   11.1878 C.ar    1  UNL1        0.0195
      8 C          61.6877   88.6320   10.5688 C.ar    1  UNL1       -0.0169
      9 C          60.8209   88.2858    9.3945 C.ar    1  UNL1        0.0053
     10 C          60.0790   89.1388    8.4086 C.ar    1  UNL1        0.0368
     11 C          62.1058   89.9480   11.1544 C.3     1  UNL1        0.0439
     12 C          62.9989   89.9831   12.3590 C.3     1  UNL1        0.0774
     13 N          63.4739   88.7021   12.9780 N.3     1  UNL1       -0.2644
     14 C          63.0559   87.3859   12.3924 C.3     1  UNL1        0.1056
     15 H          58.0333   88.9490    5.6476 H       1  UNL1        0.2922
     16 C          64.3671   88.7371   14.1827 C.3     1  UNL1        0.1010
     17 C          64.5641   90.0208   14.9332 C.ar    1  UNL1        0.0131
     18 C          65.7531   90.8867   14.6391 C.ar    1  UNL1        0.0002
     19 C          65.9500   92.1704   15.3897 C.ar    1  UNL1        0.0204
     20 C          64.9579   92.5882   16.4342 C.ar    1  UNL1        0.0989
     21 N          63.7689   91.7224   16.7282 N.ar    1  UNL1       -0.2426
     22 C          63.5720   90.4386   15.9777 C.ar    1  UNL1        0.0959
@<TRIPOS>BOND
     1     1     2    1
     2     2     3   ar
     3     3     4   ar
     4     4     5   ar
     5     5     6   ar
     6     6     7   ar
     7     7     8   ar
     8     8     9   ar
     9     9    10   ar
    10     8    11    1
    11    11    12    1
    12    12    13    1
    13    13    16    1
    14    16    17    1
    15    17    18   ar
    16    18    19   ar
    17    19    20   ar
    18    20    21   ar
    19    21    22   ar
    20    13    14    1
    21    10     2   ar
    22    22    17   ar
    23     9     5   ar
    24    14     7    1
    25     1    15    1
@<TRIPOS>MOLECULE
*****
 22 25 0 0 0
SMALL
GASTEIGER

@<TRIPOS>ATOM
      1 O          63.9386   80.3266   14.5236 O.3     1  UNL1       -0.5055
      2 C          63.5465   81.5023   13.6785 C.ar    1  UNL1        0.1337
      3 C          62.8420   81.2852   12.3721 C.ar    1  UNL1        0.0371
      4 C          62.4500   82.4609   11.5271 C.ar    1  UNL1        0.0096
      5 C          62.7624   83.8535   11.9883 C.ar    1  UNL1        0.0291
      6 S          62.5010   85.1967   11.3739 S.2     1  UNL1       -0.0902
      7 C          63.0440   86.2439   12.3005 C.ar    1  UNL1        0.0195
      8 C          63.6410   85.5480   13.4876 C.ar    1  UNL1       -0.0169
      9 C          63.4669   84.0706   13.2946 C.ar    1  UNL1        0.0053
     10 C          63.8590   82.8949   14.1397 C.ar    1  UNL1        0.0368
     11 C          64.2658   86.3493   14.5908 C.3     1  UNL1        0.0439
     12 C          64.2938   87.8467   14.5070 C.3     1  UNL1        0.0774
     13 N          63.6968   88.5427   13.3199 N.3     1  UNL1       -0.2644
     14 C          63.0719   87.7412   12.2166 C.3     1  UNL1        0.1056
     15 H          63.7434   79.4567   14.2354 H       1  UNL1        0.2922
     16 C          63.7248   90.0401   13.2360 C.3     1  UNL1        0.1010
     17 C          64.4259   90.8377   14.2954 C.ar    1  UNL1        0.0131
     18 C          65.8607   91.2338   14.1095 C.ar    1  UNL1        0.0002
     19 C          66.5618   92.0314   15.1689 C.ar    1  UNL1        0.0204
     20 C          65.8282   92.4327   16.4141 C.ar    1  UNL1        0.0989
     21 N          64.3935   92.0366   16.6000 N.ar    1  UNL1       -0.2426
     22 C          63.6923   91.2390   15.5406 C.ar    1  UNL1        0.0959
@<TRIPOS>BOND
     1     1     2    1
     2     2     3   ar
     3     3     4   ar
     4     4     5   ar
     5     5     6   ar
     6     6     7   ar
     7     7     8   ar
     8     8     9   ar
     9     9    10   ar
    10     8    11    1
    11    11    12    1
    12    12    13    1
    13    13    16    1
    14    16    17    1
    15    17    18   ar
    16    18    19   ar
    17    19    20   ar
    18    20    21   ar
    19    21    22   ar
    20    13    14    1
    21    10     2   ar
    22    22    17   ar
    23     9     5   ar
    24    14     7    1
    25     1    15    1
@<TRIPOS>MOLECULE
*****
 22 25 0 0 0
SMALL
GASTEIGER

@<TRIPOS>ATOM
      1 O          64.0090   80.9811   14.2288 O.3     1  UNL1       -0.5055
      2 C          63.6169   82.2118   13.4661 C.ar    1  UNL1        0.1337
      3 C          62.9256   82.0845   12.1411 C.ar    1  UNL1        0.0371
      4 C          62.5335   83.3152   11.3784 C.ar    1  UNL1        0.0096
      5 C          62.8328   84.6732   11.9407 C.ar    1  UNL1        0.0291
      6 S          62.5682   86.0553   11.4213 S.2     1  UNL1       -0.0902
      7 C          63.0961   87.0368   12.4254 C.ar    1  UNL1        0.0195
      8 C          63.6868   86.2613   13.5653 C.ar    1  UNL1       -0.0169
      9 C          63.5241   84.8005   13.2658 C.ar    1  UNL1        0.0053
     10 C          63.9162   83.5698   14.0285 C.ar    1  UNL1        0.0368
     11 C          64.2966   86.9854   14.7288 C.3     1  UNL1        0.0439
     12 C          64.3156   88.4851   14.7523 C.3     1  UNL1        0.0774
     13 N          63.7248   89.2606   13.6123 N.3     1  UNL1       -0.2644
     14 C          63.1150   88.5364   12.4488 C.3     1  UNL1        0.1056
     15 H          63.8220   80.1328   13.8775 H       1  UNL1        0.2922
     16 C          63.7438   90.7604   13.6358 C.3     1  UNL1        0.1010
     17 C          64.7522   91.5106   12.8171 C.ar    1  UNL1        0.0131
     18 C          64.4555   91.8471   11.3858 C.ar    1  UNL1        0.0002
     19 C          65.4639   92.5973   10.5671 C.ar    1  UNL1        0.0204
     20 C          66.7691   93.0109   11.1797 C.ar    1  UNL1        0.0989
     21 N          67.0659   92.6743   12.6110 N.ar    1  UNL1       -0.2426
     22 C          66.0574   91.9241   13.4297 C.ar    1  UNL1        0.0959
@<TRIPOS>BOND
     1     1     2    1
     2     2     3   ar
     3     3     4   ar
     4     4     5   ar
     5     5     6   ar
     6     6     7   ar
     7     7     8   ar
     8     8     9   ar
     9     9    10   ar
    10     8    11    1
    11    11    12    1
    12    12    13    1
    13    13    16    1
    14    16    17    1
    15    17    18   ar
    16    18    19   ar
    17    19    20   ar
    18    20    21   ar
    19    21    22   ar
    20    13    14    1
    21    10     2   ar
    22    22    17   ar
    23     9     5   ar
    24    14     7    1
    25     1    15    1
@<TRIPOS>MOLECULE
*****
 22 25 0 0 0
SMALL
GASTEIGER

@<TRIPOS>ATOM
      1 O          59.7704   85.2250    7.0744 O.3     1  UNL1       -0.5055
      2 C          60.0185   86.4908    7.8401 C.ar    1  UNL1        0.1337
      3 C          59.3638   87.7693    7.4080 C.ar    1  UNL1        0.0371
      4 C          59.6118   89.0350    8.1737 C.ar    1  UNL1        0.0096
      5 C          60.5147   89.0223    9.3715 C.ar    1  UNL1        0.0291
      6 S          60.9443   90.1054   10.3161 S.2     1  UNL1       -0.0902
      7 C          61.8646   89.4963   11.3320 C.ar    1  UNL1        0.0195
      8 C          62.0038   88.0368   11.0153 C.ar    1  UNL1       -0.0169
      9 C          61.1694   87.7438    9.8036 C.ar    1  UNL1        0.0053
     10 C          60.9213   86.4781    9.0379 C.ar    1  UNL1        0.0368
     11 C          62.8721   87.1631   11.8711 C.3     1  UNL1        0.0439
     12 C          63.6014   87.7489   13.0436 C.3     1  UNL1        0.0774
     13 N          63.4623   89.2084   13.3604 N.3     1  UNL1       -0.2644
     14 C          62.5938   90.0822   12.5045 C.3     1  UNL1        0.1056
     15 H          59.2064   85.2330    6.3262 H       1  UNL1        0.2922
     16 C          64.1916   89.7943   14.5330 C.3     1  UNL1        0.1010
     17 C          64.9894   91.0537   14.3670 C.ar    1  UNL1        0.0131
     18 C          65.4143   91.4974   12.9986 C.ar    1  UNL1        0.0002
     19 C          66.2121   92.7568   12.8326 C.ar    1  UNL1        0.0204
     20 C          66.5849   93.5724   14.0350 C.ar    1  UNL1        0.0989
     21 N          66.1599   93.1287   15.4033 N.ar    1  UNL1       -0.2426
     22 C          65.3621   91.8693   15.5694 C.ar    1  UNL1        0.0959
@<TRIPOS>BOND
     1     1     2    1
     2     2     3   ar
     3     3     4   ar
     4     4     5   ar
     5     5     6   ar
     6     6     7   ar
     7     7     8   ar
     8     8     9   ar
     9     9    10   ar
    10     8    11    1
    11    11    12    1
    12    12    13    1
    13    13    16    1
    14    16    17    1
    15    17    18   ar
    16    18    19   ar
    17    19    20   ar
    18    20    21   ar
    19    21    22   ar
    20    13    14    1
    21    10     2   ar
    22    22    17   ar
    23     9     5   ar
    24    14     7    1
    25     1    15    1
@<TRIPOS>MOLECULE
*****
 22 25 0 0 0
SMALL
GASTEIGER

@<TRIPOS>ATOM
      1 O          66.7713   92.5859   16.3639 O.3     1  UNL1       -0.5055
      2 C          66.2916   92.5676   14.9428 C.ar    1  UNL1        0.1337
      3 C          66.9513   93.4409   13.9172 C.ar    1  UNL1        0.0371
      4 C          66.4716   93.4226   12.4961 C.ar    1  UNL1        0.0096
      5 C          65.3321   92.5308   12.1006 C.ar    1  UNL1        0.0291
      6 S          64.6469   92.3010   10.7863 S.2     1  UNL1       -0.0902
      7 C          63.5637   91.2855   10.9995 C.ar    1  UNL1        0.0195
      8 C          63.5794   90.8877   12.4457 C.ar    1  UNL1       -0.0169
      9 C          64.6725   91.6574   13.1263 C.ar    1  UNL1        0.0053
     10 C          65.1522   91.6758   14.5474 C.ar    1  UNL1        0.0368
     11 C          62.5966   89.8762   12.9561 C.3     1  UNL1        0.0439
     12 C          61.5979   89.2623   12.0203 C.3     1  UNL1        0.0774
     13 N          61.5822   89.6600   10.5741 N.3     1  UNL1       -0.2644
     14 C          62.5651   90.6717   10.0637 C.3     1  UNL1        0.1056
     15 H          67.4831   93.1430   16.6110 H       1  UNL1        0.2922
     16 C          60.5834   89.0461    9.6382 C.3     1  UNL1        0.1010
     17 C          60.8990   87.7522    8.9481 C.ar    1  UNL1        0.0131
     18 C          62.1942   87.0493    9.2281 C.ar    1  UNL1        0.0002
     19 C          62.5098   85.7554    8.5380 C.ar    1  UNL1        0.0204
     20 C          61.5302   85.1645    7.5678 C.ar    1  UNL1        0.0989
     21 N          60.2351   85.8675    7.2878 N.ar    1  UNL1       -0.2426
     22 C          59.9195   87.1614    7.9779 C.ar    1  UNL1        0.0959
@<TRIPOS>BOND
     1     1     2    1
     2     2     3   ar
     3     3     4   ar
     4     4     5   ar
     5     5     6   ar
     6     6     7   ar
     7     7     8   ar
     8     8     9   ar
     9     9    10   ar
    10     8    11    1
    11    11    12    1
    12    12    13    1
    13    13    16    1
    14    16    17    1
    15    17    18   ar
    16    18    19   ar
    17    19    20   ar
    18    20    21   ar
    19    21    22   ar
    20    13    14    1
    21    10     2   ar
    22    22    17   ar
    23     9     5   ar
    24    14     7    1
    25     1    15    1
@<TRIPOS>MOLECULE
*****
 22 25 0 0 0
SMALL
GASTEIGER

@<TRIPOS>ATOM
      1 O          58.6473   89.6407    6.0955 O.3     1  UNL1       -0.5055
      2 C          59.2891   88.7506    7.1182 C.ar    1  UNL1        0.1337
      3 C          59.0843   87.2661    7.0547 C.ar    1  UNL1        0.0371
      4 C          59.7261   86.3760    8.0774 C.ar    1  UNL1        0.0096
      5 C          60.5728   86.9705    9.1635 C.ar    1  UNL1        0.0291
      6 S          61.3268   86.3495   10.3018 S.2     1  UNL1       -0.0902
      7 C          61.9976   87.4503   11.0689 C.ar    1  UNL1        0.0195
      8 C          61.6582   88.7516   10.4046 C.ar    1  UNL1       -0.0169
      9 C          60.7775   88.4551    9.2270 C.ar    1  UNL1        0.0053
     10 C          60.1357   89.3451    8.2043 C.ar    1  UNL1        0.0368
     11 C          62.1947   90.0384   10.9578 C.3     1  UNL1        0.0439
     12 C          63.0708   90.0239   12.1753 C.3     1  UNL1        0.0774
     13 N          63.4102   88.7226   12.8396 N.3     1  UNL1       -0.2644
     14 C          62.8736   87.4357   12.2863 C.3     1  UNL1        0.1056
     15 H          58.1184   89.2693    5.4170 H       1  UNL1        0.2922
     16 C          64.2863   88.7080   14.0571 C.3     1  UNL1        0.1010
     17 C          63.8881   87.9022   15.2580 C.ar    1  UNL1        0.0131
     18 C          64.1710   86.4297   15.3006 C.ar    1  UNL1        0.0002
     19 C          63.7728   85.6239   16.5014 C.ar    1  UNL1        0.0204
     20 C          63.0918   86.2906   17.6597 C.ar    1  UNL1        0.0989
     21 N          62.8089   87.7630   17.6172 N.ar    1  UNL1       -0.2426
     22 C          63.2071   88.5689   16.4163 C.ar    1  UNL1        0.0959
@<TRIPOS>BOND
     1     1     2    1
     2     2     3   ar
     3     3     4   ar
     4     4     5   ar
     5     5     6   ar
     6     6     7   ar
     7     7     8   ar
     8     8     9   ar
     9     9    10   ar
    10     8    11    1
    11    11    12    1
    12    12    13    1
    13    13    16    1
    14    16    17    1
    15    17    18   ar
    16    18    19   ar
    17    19    20   ar
    18    20    21   ar
    19    21    22   ar
    20    13    14    1
    21    10     2   ar
    22    22    17   ar
    23     9     5   ar
    24    14     7    1
    25     1    15    1
@<TRIPOS>MOLECULE
*****
 22 25 0 0 0
SMALL
GASTEIGER

@<TRIPOS>ATOM
      1 O          60.6340   85.5054    8.5262 O.3     1  UNL1       -0.5055
      2 C          60.8867   86.8793    9.0727 C.ar    1  UNL1        0.1337
      3 C          60.2820   88.0765    8.4012 C.ar    1  UNL1        0.0371
      4 C          60.5348   89.4503    8.9477 C.ar    1  UNL1        0.0096
      5 C          61.3923   89.6270   10.1656 C.ar    1  UNL1        0.0291
      6 S          61.8152   90.8483   10.9269 S.2     1  UNL1       -0.0902
      7 C          62.6813   90.4058   12.0689 C.ar    1  UNL1        0.0195
      8 C          62.7938   88.9111   12.0134 C.ar    1  UNL1       -0.0169
      9 C          61.9971   88.4298   10.8370 C.ar    1  UNL1        0.0053
     10 C          61.7443   87.0559   10.2905 C.ar    1  UNL1        0.0368
     11 C          63.6070   88.1815   13.0410 C.3     1  UNL1        0.0439
     12 C          64.3078   88.9466   14.1243 C.3     1  UNL1        0.0774
     13 N          64.1953   90.4413   14.1798 N.3     1  UNL1       -0.2644
     14 C          63.3821   91.1710   13.1521 C.3     1  UNL1        0.1056
     15 H          60.0982   85.3951    7.7654 H       1  UNL1        0.2922
     16 C          64.8962   91.2065   15.2631 C.3     1  UNL1        0.1010
     17 C          66.2924   91.7088   15.0436 C.ar    1  UNL1        0.0131
     18 C          67.0566   92.3211   16.1799 C.ar    1  UNL1        0.0002
     19 C          68.4529   92.8234   15.9603 C.ar    1  UNL1        0.0204
     20 C          69.0848   92.7134   14.6045 C.ar    1  UNL1        0.0989
     21 N          68.3207   92.1012   13.4682 N.ar    1  UNL1       -0.2426
     22 C          66.9244   91.5989   13.6877 C.ar    1  UNL1        0.0959
@<TRIPOS>BOND
     1     1     2    1
     2     2     3   ar
     3     3     4   ar
     4     4     5   ar
     5     5     6   ar
     6     6     7   ar
     7     7     8   ar
     8     8     9   ar
     9     9    10   ar
    10     8    11    1
    11    11    12    1
    12    12    13    1
    13    13    16    1
    14    16    17    1
    15    17    18   ar
    16    18    19   ar
    17    19    20   ar
    18    20    21   ar
    19    21    22   ar
    20    13    14    1
    21    10     2   ar
    22    22    17   ar
    23     9     5   ar
    24    14     7    1
    25     1    15    1
@<TRIPOS>MOLECULE
*****
 22 25 0 0 0
SMALL
GASTEIGER

@<TRIPOS>ATOM
      1 O          65.8398   95.2750    9.9626 O.3     1  UNL1       -0.5055
      2 C          65.5719   94.1255   10.8883 C.ar    1  UNL1        0.1337
      3 C          66.1580   94.1222   12.2690 C.ar    1  UNL1        0.0371
      4 C          65.8902   92.9727   13.1947 C.ar    1  UNL1        0.0096
      5 C          65.0362   91.8266   12.7398 C.ar    1  UNL1        0.0291
      6 S          64.6013   90.5651   13.4249 S.2     1  UNL1       -0.0902
      7 C          63.7464   89.7887   12.4676 C.ar    1  UNL1        0.0195
      8 C          63.6529   90.5704   11.1908 C.ar    1  UNL1       -0.0169
      9 C          64.4501   91.8299   11.3591 C.ar    1  UNL1        0.0053
     10 C          64.7179   92.9794   10.4333 C.ar    1  UNL1        0.0368
     11 C          62.8541   90.0344   10.0400 C.3     1  UNL1        0.0439
     12 C          62.1486   88.7166   10.1660 C.3     1  UNL1        0.0774
     13 N          62.2421   87.9349   11.4427 N.3     1  UNL1       -0.2644
     14 C          63.0410   88.4710   12.5936 C.3     1  UNL1        0.1056
     15 H          66.3732   95.9910   10.2468 H       1  UNL1        0.2922
     16 C          61.5366   86.6171   11.5687 C.3     1  UNL1        0.1010
     17 C          62.3284   85.3438   11.6130 C.ar    1  UNL1        0.0131
     18 C          62.9128   84.7798   10.3520 C.ar    1  UNL1        0.0002
     19 C          63.7046   83.5065   10.3963 C.ar    1  UNL1        0.0204
     20 C          63.9118   82.7973   11.7016 C.ar    1  UNL1        0.0989
     21 N          63.3273   83.3613   12.9626 N.ar    1  UNL1       -0.2426
     22 C          62.5356   84.6346   12.9184 C.ar    1  UNL1        0.0959
@<TRIPOS>BOND
     1     1     2    1
     2     2     3   ar
     3     3     4   ar
     4     4     5   ar
     5     5     6   ar
     6     6     7   ar
     7     7     8   ar
     8     8     9   ar
     9     9    10   ar
    10     8    11    1
    11    11    12    1
    12    12    13    1
    13    13    16    1
    14    16    17    1
    15    17    18   ar
    16    18    19   ar
    17    19    20   ar
    18    20    21   ar
    19    21    22   ar
    20    13    14    1
    21    10     2   ar
    22    22    17   ar
    23     9     5   ar
    24    14     7    1
    25     1    15    1
