@<TRIPOS>MOLECULE
*****
 38 43 0 0 0
SMALL
GASTEIGER

@<TRIPOS>ATOM
      1 C          64.0482   89.7409   15.8066 C.ar    1  UNL1        0.1667
      2 N          63.2832   89.0052   16.8665 N.ar    1  UNL1       -0.2239
      3 C          63.1993   87.5634   16.4612 C.ar    1  UNL1        0.0893
      4 C          62.5657   86.3720   17.1161 C.ar    1  UNL1        0.0202
      5 C          62.6453   85.0252   16.4606 C.ar    1  UNL1        0.0081
      6 C          63.3585   84.8698   15.1502 C.ar    1  UNL1        0.0329
      7 C          63.9922   86.0612   14.4953 C.ar    1  UNL1        0.0146
      8 C          63.9126   87.4080   15.1508 C.ar    1  UNL1        0.0502
      9 S          64.4372   88.7538   14.7462 S.2     1  UNL1       -0.0513
     10 O          66.0394   90.8421   13.8514 O.2     1  UNL1       -0.2524
     11 C          65.3637   91.7570   14.8294 C.2     1  UNL1        0.3059
     12 N          65.6836   93.2225   14.8297 N.am    1  UNL1       -0.2872
     13 N          64.3681   91.2064   15.8069 N.am    1  UNL1       -0.2485
     14 H          65.2401   93.8230   15.4716 H       1  UNL1        0.1510
     15 H          63.9246   91.8069   16.4488 H       1  UNL1        0.1583
     16 C          66.6792   93.7730   13.8521 C.3     1  UNL1        0.1082
     17 C          66.2134   94.3229   12.5365 C.3     1  UNL1        0.0938
     18 N          66.8940   93.9066   11.2664 N.3     1  UNL1       -0.2670
     19 C          67.0865   94.8993   10.1584 C.3     1  UNL1        0.1047
     20 C          67.7671   94.4831    8.8883 C.3     1  UNL1        0.1595
     21 O          68.2555   93.0741    8.7260 O.3     1  UNL1       -0.3508
     22 C          68.0631   92.0814    9.8339 C.3     1  UNL1        0.1595
     23 C          67.3824   92.4976   11.1041 C.3     1  UNL1        0.1047
     24 S          63.4381   83.5229   14.4947 S.3     1  UNL1       -0.0470
     25 C          63.7292   83.4192   13.0269 C.ar    1  UNL1        0.2172
     26 N          64.7062   82.4785   12.3861 N.ar    1  UNL1       -0.1200
     27 N          64.6752   82.7158   10.9054 N.ar    1  UNL1       -0.1264
     28 C          63.6790   83.8032   10.6310 C.ar    1  UNL1        0.1873
     29 C          63.2287   84.4537    9.3566 C.ar    1  UNL1        0.0436
     30 C          62.1937   85.5388    9.3933 C.ar    1  UNL1        0.0390
     31 C          61.6090   85.9735   10.7045 C.ar    1  UNL1        0.1488
     32 N          62.0593   85.3230   11.9789 N.ar    1  UNL1       -0.1471
     33 N          63.0943   84.2378   11.9422 N.ar    1  UNL1       -0.1847
     34 N          60.5741   87.0585   10.7413 N.pl3   1  UNL1       -0.3184
     35 H          60.2050   87.3577   11.6036 H       1  UNL1        0.1482
     36 C          60.1015   87.6878    9.4644 C.3     1  UNL1        0.0705
     37 C          59.3570   87.5902    8.1658 C.3     1  UNL1        0.0212
     38 C          60.0274   88.8755    8.5512 C.3     1  UNL1        0.0212
@<TRIPOS>BOND
     1    10    11    2
     2    11    12   am
     3    12    16    1
     4    16    17    1
     5    17    18    1
     6    18    19    1
     7    19    20    1
     8    20    21    1
     9    21    22    1
    10    22    23    1
    11    11    13   am
    12    13     1    1
    13     1     2   ar
    14     2     3   ar
    15     3     4   ar
    16     4     5   ar
    17     5     6   ar
    18     6    24    1
    19    24    25    1
    20    25    26   ar
    21    26    27   ar
    22    27    28   ar
    23    28    29   ar
    24    29    30   ar
    25    30    31   ar
    26    31    34    1
    27    34    36    1
    28    36    37    1
    29    37    38    1
    30    31    32   ar
    31    32    33   ar
    32     6     7   ar
    33     7     8   ar
    34     8     9   ar
    35    23    18    1
    36     9     1   ar
    37     8     3   ar
    38    33    25   ar
    39    33    28   ar
    40    38    36    1
    41    12    14    1
    42    13    15    1
    43    34    35    1
@<TRIPOS>MOLECULE
*****
 38 43 0 0 0
SMALL
GASTEIGER

@<TRIPOS>ATOM
      1 C          63.2969   85.3836   16.0336 C.ar    1  UNL1        0.1667
      2 N          62.6366   86.4443   16.8635 N.ar    1  UNL1       -0.2239
      3 C          63.1628   87.7763   16.4174 C.ar    1  UNL1        0.0893
      4 C          62.8718   89.1748   16.8751 C.ar    1  UNL1        0.0202
      5 C          63.5664   90.3358   16.2273 C.ar    1  UNL1        0.0081
      6 C          64.5519   90.0982   15.1218 C.ar    1  UNL1        0.0329
      7 C          64.8429   88.6997   14.6640 C.ar    1  UNL1        0.0146
      8 C          64.1483   87.5388   15.3119 C.ar    1  UNL1        0.0502
      9 S          64.2312   86.0600   15.0747 S.2     1  UNL1       -0.0513
     10 O          61.9796   83.9014   13.7824 O.2     1  UNL1       -0.2524
     11 C          62.4053   83.1648   15.0178 C.2     1  UNL1        0.3059
     12 N          62.1722   81.6871   15.1276 N.am    1  UNL1       -0.2872
     13 N          63.0639   83.9058   16.1434 N.am    1  UNL1       -0.2485
     14 H          62.4516   81.2036   15.9384 H       1  UNL1        0.1510
     15 H          63.3433   83.4224   16.9542 H       1  UNL1        0.1583
     16 C          61.5135   80.9460   14.0020 C.3     1  UNL1        0.1082
     17 C          62.3355   80.4443   12.8519 C.3     1  UNL1        0.0938
     18 N          63.2228   81.3883   12.0960 N.3     1  UNL1       -0.2670
     19 C          64.3032   82.1404   12.8153 C.3     1  UNL1        0.1047
     20 C          65.1905   83.0844   12.0594 C.3     1  UNL1        0.1595
     21 O          64.9976   83.2764   10.5843 O.3     1  UNL1       -0.3508
     22 C          63.9173   82.5243    9.8650 C.3     1  UNL1        0.1595
     23 C          63.0299   81.5802   10.6209 C.3     1  UNL1        0.1047
     24 S          65.2465   91.2592   14.4739 S.3     1  UNL1       -0.0470
     25 C          64.9273   91.6277   13.0554 C.ar    1  UNL1        0.2172
     26 N          65.5818   92.7172   12.2587 N.ar    1  UNL1       -0.1200
     27 N          64.9564   92.7342   10.8954 N.ar    1  UNL1       -0.1264
     28 C          63.9154   91.6552   10.8495 C.ar    1  UNL1        0.1873
     29 C          62.9816   91.2070    9.7646 C.ar    1  UNL1        0.0436
     30 C          62.0298   90.0750   10.0144 C.ar    1  UNL1        0.0390
     31 C          62.0117   89.3911   11.3494 C.ar    1  UNL1        0.1488
     32 N          62.9455   89.8393   12.4343 N.ar    1  UNL1       -0.1471
     33 N          63.8974   90.9713   12.1844 N.ar    1  UNL1       -0.1847
     34 N          61.0599   88.2591   11.5994 N.pl3   1  UNL1       -0.3184
     35 H          60.3385   88.3597   12.2617 H       1  UNL1        0.1482
     36 C          61.2072   86.9738   10.8402 C.3     1  UNL1        0.0705
     37 C          60.9513   86.1554    9.6095 C.3     1  UNL1        0.0212
     38 C          61.7182   85.5661   10.7560 C.3     1  UNL1        0.0212
@<TRIPOS>BOND
     1    10    11    2
     2    11    12   am
     3    12    16    1
     4    16    17    1
     5    17    18    1
     6    18    19    1
     7    19    20    1
     8    20    21    1
     9    21    22    1
    10    22    23    1
    11    11    13   am
    12    13     1    1
    13     1     2   ar
    14     2     3   ar
    15     3     4   ar
    16     4     5   ar
    17     5     6   ar
    18     6    24    1
    19    24    25    1
    20    25    26   ar
    21    26    27   ar
    22    27    28   ar
    23    28    29   ar
    24    29    30   ar
    25    30    31   ar
    26    31    34    1
    27    34    36    1
    28    36    37    1
    29    37    38    1
    30    31    32   ar
    31    32    33   ar
    32     6     7   ar
    33     7     8   ar
    34     8     9   ar
    35    23    18    1
    36     9     1   ar
    37     8     3   ar
    38    33    25   ar
    39    33    28   ar
    40    38    36    1
    41    12    14    1
    42    13    15    1
    43    34    35    1
@<TRIPOS>MOLECULE
*****
 38 43 0 0 0
SMALL
GASTEIGER

@<TRIPOS>ATOM
      1 C          60.9268   86.1460    8.9779 C.ar    1  UNL1        0.1667
      2 N          62.0242   85.1764    8.6529 N.ar    1  UNL1       -0.2239
      3 C          62.7216   84.8198    9.9321 C.ar    1  UNL1        0.0893
      4 C          63.8773   83.9097   10.2252 C.ar    1  UNL1        0.0202
      5 C          64.3668   83.7489   11.6340 C.ar    1  UNL1        0.0081
      6 C          63.7005   84.4982   12.7496 C.ar    1  UNL1        0.0329
      7 C          62.5448   85.4084   12.4564 C.ar    1  UNL1        0.0146
      8 C          62.0554   85.5692   11.0477 C.ar    1  UNL1        0.0502
      9 S          60.9462   86.3888   10.4579 S.2     1  UNL1       -0.0513
     10 O          60.8035   89.1291    8.6844 O.2     1  UNL1       -0.2524
     11 C          59.9153   88.2559    7.8485 C.2     1  UNL1        0.3059
     12 N          58.9655   88.8742    6.8659 N.am    1  UNL1       -0.2872
     13 N          59.9770   86.7644    7.9953 N.am    1  UNL1       -0.2485
     14 H          58.3825   88.3011    6.3173 H       1  UNL1        0.1510
     15 H          59.3941   86.1912    7.4467 H       1  UNL1        0.1583
     16 C          58.9039   90.3658    6.7192 C.3     1  UNL1        0.1082
     17 C          58.5469   90.9751    5.3958 C.3     1  UNL1        0.0938
     18 N          59.6233   91.5307    4.5112 N.3     1  UNL1       -0.2670
     19 C          59.2889   92.5772    3.4898 C.3     1  UNL1        0.1047
     20 C          60.3653   93.1329    2.6053 C.3     1  UNL1        0.1595
     21 O          61.7762   92.6421    2.7420 O.3     1  UNL1       -0.3508
     22 C          62.1106   91.5957    3.7633 C.3     1  UNL1        0.1595
     23 C          61.0342   91.0400    4.6479 C.3     1  UNL1        0.1047
     24 S          64.1900   84.3374   14.1583 S.3     1  UNL1       -0.0470
     25 C          63.6028   85.1737   15.2564 C.ar    1  UNL1        0.2172
     26 N          62.8218   84.6641   16.4313 N.ar    1  UNL1       -0.1200
     27 N          62.4298   85.8418   17.2734 N.ar    1  UNL1       -0.1264
     28 C          62.9687   87.0794   16.6190 C.ar    1  UNL1        0.1873
     29 C          62.8929   88.5289   16.9972 C.ar    1  UNL1        0.0436
     30 C          63.5419   89.5656   16.1289 C.ar    1  UNL1        0.0390
     31 C          64.2669   89.1526   14.8822 C.ar    1  UNL1        0.1488
     32 N          64.3427   87.7031   14.5041 N.ar    1  UNL1       -0.1471
     33 N          63.6936   86.6664   15.3725 N.ar    1  UNL1       -0.1847
     34 N          64.9160   90.1892   14.0139 N.pl3   1  UNL1       -0.3184
     35 H          64.7219   90.2147   13.0490 H       1  UNL1        0.1482
     36 C          65.8607   91.1869   14.6155 C.3     1  UNL1        0.0705
     37 C          67.2606   91.6255   14.9287 C.3     1  UNL1        0.0212
     38 C          66.0973   92.4764   15.3444 C.3     1  UNL1        0.0212
@<TRIPOS>BOND
     1    10    11    2
     2    11    12   am
     3    12    16    1
     4    16    17    1
     5    17    18    1
     6    18    19    1
     7    19    20    1
     8    20    21    1
     9    21    22    1
    10    22    23    1
    11    11    13   am
    12    13     1    1
    13     1     2   ar
    14     2     3   ar
    15     3     4   ar
    16     4     5   ar
    17     5     6   ar
    18     6    24    1
    19    24    25    1
    20    25    26   ar
    21    26    27   ar
    22    27    28   ar
    23    28    29   ar
    24    29    30   ar
    25    30    31   ar
    26    31    34    1
    27    34    36    1
    28    36    37    1
    29    37    38    1
    30    31    32   ar
    31    32    33   ar
    32     6     7   ar
    33     7     8   ar
    34     8     9   ar
    35    23    18    1
    36     9     1   ar
    37     8     3   ar
    38    33    25   ar
    39    33    28   ar
    40    38    36    1
    41    12    14    1
    42    13    15    1
    43    34    35    1
@<TRIPOS>MOLECULE
*****
 38 43 0 0 0
SMALL
GASTEIGER

@<TRIPOS>ATOM
      1 C          59.8245   87.2342    7.8614 C.ar    1  UNL1        0.1667
      2 N          61.0040   86.4920    7.3066 N.ar    1  UNL1       -0.2239
      3 C          61.7102   85.8237    8.4488 C.ar    1  UNL1        0.0893
      4 C          62.9339   84.9579    8.5037 C.ar    1  UNL1        0.0202
      5 C          63.4145   84.4213    9.8194 C.ar    1  UNL1        0.0081
      6 C          62.6713   84.7504   11.0801 C.ar    1  UNL1        0.0329
      7 C          61.4476   85.6161   11.0252 C.ar    1  UNL1        0.0146
      8 C          60.9671   86.1528    9.7095 C.ar    1  UNL1        0.0502
      9 S          59.8016   87.0245    9.3465 S.2     1  UNL1       -0.0513
     10 O          60.5215   90.0238    7.0056 O.2     1  UNL1       -0.2524
     11 C          59.1890   89.4386    6.6421 C.2     1  UNL1        0.3059
     12 N          58.2050   90.2483    5.8508 N.am    1  UNL1       -0.2872
     13 N          58.8405   88.0439    7.0700 N.am    1  UNL1       -0.2485
     14 H          57.3305   89.8643    5.6122 H       1  UNL1        0.1510
     15 H          57.9659   87.6598    6.8315 H       1  UNL1        0.1583
     16 C          58.5536   91.6431    5.4229 C.3     1  UNL1        0.1082
     17 C          58.6744   91.9721    3.9644 C.3     1  UNL1        0.0938
     18 N          60.0121   92.3212    3.3826 N.3     1  UNL1       -0.2670
     19 C          61.2412   91.5909    3.8366 C.3     1  UNL1        0.1047
     20 C          62.5789   91.9401    3.2547 C.3     1  UNL1        0.1595
     21 O          62.6876   93.0195    2.2189 O.3     1  UNL1       -0.3508
     22 C          61.4586   93.7498    1.7649 C.3     1  UNL1        0.1595
     23 C          60.1208   93.4007    2.3467 C.3     1  UNL1        0.1047
     24 S          63.1519   84.2137   12.3958 S.3     1  UNL1       -0.0470
     25 C          63.7256   85.1458   13.4215 C.ar    1  UNL1        0.2172
     26 N          64.4360   84.7428   14.6798 N.ar    1  UNL1       -0.1200
     27 N          64.8391   85.9925   15.4050 N.ar    1  UNL1       -0.1264
     28 C          64.3779   87.1677   14.5949 C.ar    1  UNL1        0.1873
     29 C          64.4956   88.6468   14.8151 C.ar    1  UNL1        0.0436
     30 C          63.9253   89.6026   13.8096 C.ar    1  UNL1        0.0390
     31 C          63.2371   89.0793   12.5838 C.ar    1  UNL1        0.1488
     32 N          63.1193   87.6002   12.3636 N.ar    1  UNL1       -0.1471
     33 N          63.6897   86.6444   13.3691 N.ar    1  UNL1       -0.1847
     34 N          62.6667   90.0350   11.5783 N.pl3   1  UNL1       -0.3184
     35 H          63.2670   90.6044   11.0447 H       1  UNL1        0.1482
     36 C          61.1817   90.1233   11.3857 C.3     1  UNL1        0.0705
     37 C          59.7899   89.9185   11.9061 C.3     1  UNL1        0.0212
     38 C          60.0016   90.4809   10.5317 C.3     1  UNL1        0.0212
@<TRIPOS>BOND
     1    10    11    2
     2    11    12   am
     3    12    16    1
     4    16    17    1
     5    17    18    1
     6    18    19    1
     7    19    20    1
     8    20    21    1
     9    21    22    1
    10    22    23    1
    11    11    13   am
    12    13     1    1
    13     1     2   ar
    14     2     3   ar
    15     3     4   ar
    16     4     5   ar
    17     5     6   ar
    18     6    24    1
    19    24    25    1
    20    25    26   ar
    21    26    27   ar
    22    27    28   ar
    23    28    29   ar
    24    29    30   ar
    25    30    31   ar
    26    31    34    1
    27    34    36    1
    28    36    37    1
    29    37    38    1
    30    31    32   ar
    31    32    33   ar
    32     6     7   ar
    33     7     8   ar
    34     8     9   ar
    35    23    18    1
    36     9     1   ar
    37     8     3   ar
    38    33    25   ar
    39    33    28   ar
    40    38    36    1
    41    12    14    1
    42    13    15    1
    43    34    35    1
@<TRIPOS>MOLECULE
*****
 38 43 0 0 0
SMALL
GASTEIGER

@<TRIPOS>ATOM
      1 C          59.3133   88.6613    7.6266 C.ar    1  UNL1        0.1667
      2 N          60.0297   89.2370    8.8120 N.ar    1  UNL1       -0.2239
      3 C          60.8694   88.1518    9.4181 C.ar    1  UNL1        0.0893
      4 C          61.7883   88.1375   10.6035 C.ar    1  UNL1        0.0202
      5 C          62.5098   86.8768   10.9780 C.ar    1  UNL1        0.0081
      6 C          62.3123   85.6305   10.1671 C.ar    1  UNL1        0.0329
      7 C          61.3934   85.6448    8.9816 C.ar    1  UNL1        0.0146
      8 C          60.6720   86.9054    8.6071 C.ar    1  UNL1        0.0502
      9 S          59.7102   87.2204    7.4999 S.2     1  UNL1       -0.0513
     10 O          60.3777   90.5483    5.5514 O.2     1  UNL1       -0.2524
     11 C          58.8984   90.3409    5.6883 C.2     1  UNL1        0.3059
     12 N          57.9513   91.0770    4.7876 N.am    1  UNL1       -0.2872
     13 N          58.3662   89.3974    6.7259 N.am    1  UNL1       -0.2485
     14 H          56.9804   90.9409    4.8775 H       1  UNL1        0.1510
     15 H          57.3953   89.2613    6.8158 H       1  UNL1        0.1583
     16 C          58.4835   92.0205    3.7500 C.3     1  UNL1        0.1082
     17 C          59.7852   92.7301    3.9787 C.3     1  UNL1        0.0938
     18 N          60.7407   92.9298    2.8398 N.3     1  UNL1       -0.2670
     19 C          62.1074   92.3136    2.8905 C.3     1  UNL1        0.1047
     20 C          63.0628   92.5133    1.7516 C.3     1  UNL1        0.1595
     21 O          62.6517   93.3292    0.5620 O.3     1  UNL1       -0.3508
     22 C          61.2851   93.9454    0.5112 C.3     1  UNL1        0.1595
     23 C          60.3295   93.7457    1.6501 C.3     1  UNL1        0.1047
     24 S          63.0338   84.3698   10.5416 S.3     1  UNL1       -0.0470
     25 C          62.8084   83.7485   11.8881 C.ar    1  UNL1        0.2172
     26 N          62.2662   82.3737   12.1452 N.ar    1  UNL1       -0.1200
     27 N          62.2084   82.1684   13.6299 N.ar    1  UNL1       -0.1264
     28 C          62.7148   83.4163   14.2905 C.ar    1  UNL1        0.1873
     29 C          62.8863   83.7896   15.7331 C.ar    1  UNL1        0.0436
     30 C          63.4285   85.1393   16.0994 C.ar    1  UNL1        0.0390
     31 C          63.7994   86.1159   15.0229 C.ar    1  UNL1        0.1488
     32 N          63.6279   85.7426   13.5802 N.ar    1  UNL1       -0.1471
     33 N          63.0857   84.3928   13.2140 N.ar    1  UNL1       -0.1847
     34 N          64.3416   87.4656   15.3890 N.pl3   1  UNL1       -0.3184
     35 H          64.9446   87.5608   16.1614 H       1  UNL1        0.1482
     36 C          63.9651   88.6702   14.5784 C.3     1  UNL1        0.0705
     37 C          63.8300   89.3506   13.2484 C.3     1  UNL1        0.0212
     38 C          63.4482   90.0764   14.5043 C.3     1  UNL1        0.0212
@<TRIPOS>BOND
     1    10    11    2
     2    11    12   am
     3    12    16    1
     4    16    17    1
     5    17    18    1
     6    18    19    1
     7    19    20    1
     8    20    21    1
     9    21    22    1
    10    22    23    1
    11    11    13   am
    12    13     1    1
    13     1     2   ar
    14     2     3   ar
    15     3     4   ar
    16     4     5   ar
    17     5     6   ar
    18     6    24    1
    19    24    25    1
    20    25    26   ar
    21    26    27   ar
    22    27    28   ar
    23    28    29   ar
    24    29    30   ar
    25    30    31   ar
    26    31    34    1
    27    34    36    1
    28    36    37    1
    29    37    38    1
    30    31    32   ar
    31    32    33   ar
    32     6     7   ar
    33     7     8   ar
    34     8     9   ar
    35    23    18    1
    36     9     1   ar
    37     8     3   ar
    38    33    25   ar
    39    33    28   ar
    40    38    36    1
    41    12    14    1
    42    13    15    1
    43    34    35    1
@<TRIPOS>MOLECULE
*****
 38 43 0 0 0
SMALL
GASTEIGER

@<TRIPOS>ATOM
      1 C          64.3401   84.9196   15.5064 C.ar    1  UNL1        0.1667
      2 N          63.4974   85.4292   16.6379 N.ar    1  UNL1       -0.2239
      3 C          63.4808   86.9273   16.5654 C.ar    1  UNL1        0.0893
      4 C          62.8153   87.9661   17.4186 C.ar    1  UNL1        0.0202
      5 C          62.9822   89.4213   17.0954 C.ar    1  UNL1        0.0081
      6 C          63.8147   89.8377   15.9191 C.ar    1  UNL1        0.0329
      7 C          64.4802   88.7989   15.0660 C.ar    1  UNL1        0.0146
      8 C          64.3133   87.3437   15.3892 C.ar    1  UNL1        0.0502
      9 S          64.8444   86.1029   14.7347 S.2     1  UNL1       -0.0513
     10 O          62.2176   83.1946   14.2737 O.2     1  UNL1       -0.2524
     11 C          63.5668   82.6172   14.5841 C.2     1  UNL1        0.3059
     12 N          63.8547   81.1772   14.2781 N.am    1  UNL1       -0.2872
     13 N          64.6280   83.4797   15.2005 N.am    1  UNL1       -0.2485
     14 H          64.7402   80.7982   14.4818 H       1  UNL1        0.1510
     15 H          65.5135   83.1007   15.4042 H       1  UNL1        0.1583
     16 C          62.7934   80.3147   13.6618 C.3     1  UNL1        0.1082
     17 C          62.4457   80.4748   12.2115 C.3     1  UNL1        0.0938
     18 N          62.8548   81.7155   11.4746 N.3     1  UNL1       -0.2670
     19 C          64.0348   81.6834   10.5490 C.3     1  UNL1        0.1047
     20 C          64.4440   82.9242    9.8121 C.3     1  UNL1        0.1595
     21 O          63.6732   84.1971   10.0007 O.3     1  UNL1       -0.3508
     22 C          62.4932   84.2292   10.9262 C.3     1  UNL1        0.1595
     23 C          62.0840   82.9884   11.6632 C.3     1  UNL1        0.1047
     24 S          63.9815   91.2930   15.5960 S.3     1  UNL1       -0.0470
     25 C          65.1297   91.7451   14.7432 C.ar    1  UNL1        0.2172
     26 N          66.4957   92.1251   15.2329 N.ar    1  UNL1       -0.1200
     27 N          67.3238   92.5114   14.0434 N.ar    1  UNL1       -0.1264
     28 C          66.4695   92.3701   12.8184 C.ar    1  UNL1        0.1873
     29 C          66.7513   92.6115   11.3651 C.ar    1  UNL1        0.0436
     30 C          65.6771   92.3793   10.3442 C.ar    1  UNL1        0.0390
     31 C          64.3211   91.9057   10.7767 C.ar    1  UNL1        0.1488
     32 N          64.0394   91.6643   12.2300 N.ar    1  UNL1       -0.1471
     33 N          65.1136   91.8965   13.2510 N.ar    1  UNL1       -0.1847
     34 N          63.2469   91.6736    9.7559 N.pl3   1  UNL1       -0.3184
     35 H          63.2565   92.1747    8.9085 H       1  UNL1        0.1482
     36 C          62.1581   90.6779   10.0260 C.3     1  UNL1        0.0705
     37 C          61.5294   89.3397    9.7728 C.3     1  UNL1        0.0212
     38 C          60.9009   90.2913   10.7471 C.3     1  UNL1        0.0212
@<TRIPOS>BOND
     1    10    11    2
     2    11    12   am
     3    12    16    1
     4    16    17    1
     5    17    18    1
     6    18    19    1
     7    19    20    1
     8    20    21    1
     9    21    22    1
    10    22    23    1
    11    11    13   am
    12    13     1    1
    13     1     2   ar
    14     2     3   ar
    15     3     4   ar
    16     4     5   ar
    17     5     6   ar
    18     6    24    1
    19    24    25    1
    20    25    26   ar
    21    26    27   ar
    22    27    28   ar
    23    28    29   ar
    24    29    30   ar
    25    30    31   ar
    26    31    34    1
    27    34    36    1
    28    36    37    1
    29    37    38    1
    30    31    32   ar
    31    32    33   ar
    32     6     7   ar
    33     7     8   ar
    34     8     9   ar
    35    23    18    1
    36     9     1   ar
    37     8     3   ar
    38    33    25   ar
    39    33    28   ar
    40    38    36    1
    41    12    14    1
    42    13    15    1
    43    34    35    1
@<TRIPOS>MOLECULE
*****
 38 43 0 0 0
SMALL
GASTEIGER

@<TRIPOS>ATOM
      1 C          60.4333   87.8737    8.9243 C.ar    1  UNL1        0.1667
      2 N          61.1852   86.9594    8.0031 N.ar    1  UNL1       -0.2239
      3 C          61.9561   85.9855    8.8441 C.ar    1  UNL1        0.0893
      4 C          62.8733   84.8546    8.4838 C.ar    1  UNL1        0.0202
      5 C          63.5150   84.0361    9.5647 C.ar    1  UNL1        0.0081
      6 C          63.2395   84.3485   11.0057 C.ar    1  UNL1        0.0329
      7 C          62.3223   85.4794   11.3659 C.ar    1  UNL1        0.0146
      8 C          61.6806   86.2979   10.2851 C.ar    1  UNL1        0.0502
      9 S          60.7394   87.4648   10.3347 S.2     1  UNL1       -0.0513
     10 O          60.2034   88.6181    6.0272 O.2     1  UNL1       -0.2524
     11 C          59.4183   89.3714    7.0598 C.2     1  UNL1        0.3059
     12 N          58.5182   90.4969    6.6437 N.am    1  UNL1       -0.2872
     13 N          59.5332   88.9992    8.5083 N.am    1  UNL1       -0.2485
     14 H          58.0029   90.9914    7.3214 H       1  UNL1        0.1510
     15 H          59.0179   89.4937    9.1859 H       1  UNL1        0.1583
     16 C          58.4033   90.8691    5.1951 C.3     1  UNL1        0.1082
     17 C          58.9100   92.1985    4.7198 C.3     1  UNL1        0.0938
     18 N          60.1187   92.2675    3.8343 N.3     1  UNL1       -0.2670
     19 C          61.3573   91.5020    4.1948 C.3     1  UNL1        0.1047
     20 C          62.5660   91.5710    3.3093 C.3     1  UNL1        0.1595
     21 O          62.5361   92.4055    2.0632 O.3     1  UNL1       -0.3508
     22 C          61.2976   93.1709    1.7026 C.3     1  UNL1        0.1595
     23 C          60.0888   93.1020    2.5882 C.3     1  UNL1        0.1047
     24 S          63.8813   83.5299   12.0865 S.3     1  UNL1       -0.0470
     25 C          63.4246   83.6743   13.5079 C.ar    1  UNL1        0.2172
     26 N          62.8021   82.5984   14.3476 N.ar    1  UNL1       -0.1200
     27 N          62.5029   83.1791   15.6979 N.ar    1  UNL1       -0.1264
     28 C          62.9405   84.6139   15.6927 C.ar    1  UNL1        0.1873
     29 C          62.8939   85.6812   16.7456 C.ar    1  UNL1        0.0436
     30 C          63.4168   87.0546   16.4451 C.ar    1  UNL1        0.0390
     31 C          63.9865   87.3607   15.0916 C.ar    1  UNL1        0.1488
     32 N          64.0331   86.2933   14.0387 N.ar    1  UNL1       -0.1471
     33 N          63.5101   84.9199   14.3393 N.ar    1  UNL1       -0.1847
     34 N          64.5094   88.7340   14.7910 N.pl3   1  UNL1       -0.3184
     35 H          65.1928   89.1387   15.3727 H       1  UNL1        0.1482
     36 C          63.9911   89.4907   13.6042 C.3     1  UNL1        0.0705
     37 C          63.1850   89.5306   12.3399 C.3     1  UNL1        0.0212
     38 C          63.8996   90.7617   12.8128 C.3     1  UNL1        0.0212
@<TRIPOS>BOND
     1    10    11    2
     2    11    12   am
     3    12    16    1
     4    16    17    1
     5    17    18    1
     6    18    19    1
     7    19    20    1
     8    20    21    1
     9    21    22    1
    10    22    23    1
    11    11    13   am
    12    13     1    1
    13     1     2   ar
    14     2     3   ar
    15     3     4   ar
    16     4     5   ar
    17     5     6   ar
    18     6    24    1
    19    24    25    1
    20    25    26   ar
    21    26    27   ar
    22    27    28   ar
    23    28    29   ar
    24    29    30   ar
    25    30    31   ar
    26    31    34    1
    27    34    36    1
    28    36    37    1
    29    37    38    1
    30    31    32   ar
    31    32    33   ar
    32     6     7   ar
    33     7     8   ar
    34     8     9   ar
    35    23    18    1
    36     9     1   ar
    37     8     3   ar
    38    33    25   ar
    39    33    28   ar
    40    38    36    1
    41    12    14    1
    42    13    15    1
    43    34    35    1
@<TRIPOS>MOLECULE
*****
 38 43 0 0 0
SMALL
GASTEIGER

@<TRIPOS>ATOM
      1 C          62.3356   90.2195   11.8369 C.ar    1  UNL1        0.1667
      2 N          61.7566   88.8390   11.9312 N.ar    1  UNL1       -0.2239
      3 C          61.0363   88.5498   10.6477 C.ar    1  UNL1        0.0893
      4 C          60.2759   87.3473   10.1724 C.ar    1  UNL1        0.0202
      5 C          59.6493   87.3467    8.8096 C.ar    1  UNL1        0.0081
      6 C          59.7832   88.5484    7.9220 C.ar    1  UNL1        0.0329
      7 C          60.5436   89.7508    8.3972 C.ar    1  UNL1        0.0146
      8 C          61.1702   89.7515    9.7600 C.ar    1  UNL1        0.0502
      9 S          61.9732   90.7835   10.4951 S.2     1  UNL1       -0.0513
     10 O          64.8558   91.6727   11.1042 O.2     1  UNL1       -0.2524
     11 C          64.3965   91.6407   12.5318 C.2     1  UNL1        0.3059
     12 N          65.1973   92.3353   13.5931 N.am    1  UNL1       -0.2872
     13 N          63.1364   90.9142   12.8982 N.am    1  UNL1       -0.2485
     14 H          64.8959   92.3144   14.5300 H       1  UNL1        0.1510
     15 H          62.8350   90.8932   13.8351 H       1  UNL1        0.1583
     16 C          66.4575   93.0619   13.2267 C.3     1  UNL1        0.1082
     17 C          66.3837   94.4279   12.6114 C.3     1  UNL1        0.0938
     18 N          66.7647   94.6247   11.1740 N.3     1  UNL1       -0.2670
     19 C          67.4500   93.5223   10.4221 C.3     1  UNL1        0.1047
     20 C          67.8310   93.7191    8.9847 C.3     1  UNL1        0.1595
     21 O          67.5268   95.0181    8.2992 O.3     1  UNL1       -0.3508
     22 C          66.8415   96.1204    9.0510 C.3     1  UNL1        0.1595
     23 C          66.4605   95.9237   10.4885 C.3     1  UNL1        0.1047
     24 S          59.1566   88.5477    6.5591 S.3     1  UNL1       -0.0470
     25 C          58.7259   89.8400    5.9310 C.ar    1  UNL1        0.2172
     26 N          57.3706   90.4712    6.0534 N.ar    1  UNL1       -0.1200
     27 N          57.3819   91.7492    5.2682 N.ar    1  UNL1       -0.1264
     28 C          58.7442   91.9079    4.6606 C.ar    1  UNL1        0.1873
     29 C          59.3356   92.9743    3.7872 C.ar    1  UNL1        0.0436
     30 C          60.7576   92.8609    3.3233 C.ar    1  UNL1        0.0390
     31 C          61.5882   91.6809    3.7330 C.ar    1  UNL1        0.1488
     32 N          60.9967   90.6144    4.6063 N.ar    1  UNL1       -0.1471
     33 N          59.5747   90.7279    5.0702 N.ar    1  UNL1       -0.1847
     34 N          63.0101   91.5674    3.2692 N.pl3   1  UNL1       -0.3184
     35 H          63.5952   90.8689    3.6420 H       1  UNL1        0.1482
     36 C          63.5406   92.5181    2.2374 C.3     1  UNL1        0.0705
     37 C          63.5179   93.0645    0.8407 C.3     1  UNL1        0.0212
     38 C          64.4823   93.6186    1.8471 C.3     1  UNL1        0.0212
@<TRIPOS>BOND
     1    10    11    2
     2    11    12   am
     3    12    16    1
     4    16    17    1
     5    17    18    1
     6    18    19    1
     7    19    20    1
     8    20    21    1
     9    21    22    1
    10    22    23    1
    11    11    13   am
    12    13     1    1
    13     1     2   ar
    14     2     3   ar
    15     3     4   ar
    16     4     5   ar
    17     5     6   ar
    18     6    24    1
    19    24    25    1
    20    25    26   ar
    21    26    27   ar
    22    27    28   ar
    23    28    29   ar
    24    29    30   ar
    25    30    31   ar
    26    31    34    1
    27    34    36    1
    28    36    37    1
    29    37    38    1
    30    31    32   ar
    31    32    33   ar
    32     6     7   ar
    33     7     8   ar
    34     8     9   ar
    35    23    18    1
    36     9     1   ar
    37     8     3   ar
    38    33    25   ar
    39    33    28   ar
    40    38    36    1
    41    12    14    1
    42    13    15    1
    43    34    35    1
