@<TRIPOS>MOLECULE
*****
 29 31 0 0 0
SMALL
GASTEIGER

@<TRIPOS>ATOM
      1 C          65.0600   90.7503   15.0266 C.3     1  UNL1        0.0534
      2 C          64.9745   91.3261   13.6441 C.ar    1  UNL1        0.0730
      3 N          65.9249   92.3182   13.0420 N.ar    1  UNL1       -0.2314
      4 C          65.4614   92.6162   11.6468 C.ar    1  UNL1        0.1454
      5 N          64.2247   91.8083   11.3867 N.ar    1  UNL1       -0.3127
      6 C          63.4286   91.7992   10.1155 C.3     1  UNL1        0.1316
      7 C          63.9237   91.0110   12.6211 C.ar    1  UNL1        0.0611
      8 C          66.1193   93.5570   10.6813 C.ar    1  UNL1        0.0617
      9 C          65.6517   94.9788   10.5829 C.ar    1  UNL1        0.0075
     10 C          66.3096   95.9196    9.6174 C.ar    1  UNL1        0.0299
     11 C          67.4350   95.4384    8.7503 C.ar    1  UNL1        0.1424
     12 F          68.0929   96.3793    7.7848 F       1  UNL1       -0.2041
     13 C          67.9026   94.0166    8.8487 C.ar    1  UNL1        0.0593
     14 C          67.2447   93.0759    9.8142 C.ar    1  UNL1        0.1452
     15 F          67.7123   91.6540    9.9126 F       1  UNL1       -0.2040
     16 C          62.7739   90.0646   12.8009 C.3     1  UNL1        0.1299
     17 C          62.9473   88.6067   12.4936 C.2     1  UNL1        0.2287
     18 O          63.8652   87.7675   13.3321 O.2     1  UNL1       -0.2747
     19 N          62.2028   87.9881   11.3477 N.am    1  UNL1       -0.3001
     20 H          61.6003   88.5389   10.7974 H       1  UNL1        0.1498
     21 C          62.3762   86.5302   11.0404 C.3     1  UNL1        0.1172
     22 C          62.1131   86.0193    9.6549 C.ar    1  UNL1        0.0082
     23 C          63.1455   85.1871    8.9536 C.ar    1  UNL1        0.0005
     24 C          62.8825   84.6763    7.5681 C.ar    1  UNL1        0.0294
     25 C          61.5870   84.9976    6.8837 C.ar    1  UNL1        0.1410
     26 F          61.3239   84.4867    5.4981 F       1  UNL1       -0.2041
     27 C          60.5546   85.8298    7.5848 C.ar    1  UNL1        0.0408
     28 C          60.8177   86.3406    8.9704 C.ar    1  UNL1        0.0575
     29 CL         59.7853   87.1728    9.6715 Cl      1  UNL1       -0.0824
@<TRIPOS>BOND
     1     1     2    1
     2     2     3   ar
     3     3     4   ar
     4     4     8    1
     5     8     9   ar
     6     9    10   ar
     7    10    11   ar
     8    11    12    1
     9    11    13   ar
    10    13    14   ar
    11    14    15    1
    12     4     5   ar
    13     5     6    1
    14     5     7   ar
    15     7    16    1
    16    16    17    1
    17    17    18    2
    18    17    19   am
    19    19    21    1
    20    21    22    1
    21    22    23   ar
    22    23    24   ar
    23    24    25   ar
    24    25    26    1
    25    25    27   ar
    26    27    28   ar
    27    28    29    1
    28     7     2   ar
    29    28    22   ar
    30    14     8   ar
    31    19    20    1
@<TRIPOS>MOLECULE
*****
 29 31 0 0 0
SMALL
GASTEIGER

@<TRIPOS>ATOM
      1 C          64.5183   87.8725   14.9249 C.3     1  UNL1        0.0534
      2 C          63.7667   88.1871   13.6655 C.ar    1  UNL1        0.0730
      3 N          63.2108   87.1857   12.6969 N.ar    1  UNL1       -0.2314
      4 C          62.5395   87.9381   11.5864 C.ar    1  UNL1        0.1454
      5 N          62.6806   89.4046   11.8686 N.ar    1  UNL1       -0.3127
      6 C          62.1554   90.5211   11.0156 C.3     1  UNL1        0.1316
      7 C          63.4390   89.5585   13.1535 C.ar    1  UNL1        0.0611
      8 C          61.8485   87.3307   10.4016 C.ar    1  UNL1        0.0617
      9 C          62.6204   86.4773    9.4394 C.ar    1  UNL1        0.0075
     10 C          61.9294   85.8699    8.2547 C.ar    1  UNL1        0.0299
     11 C          60.4665   86.1159    8.0322 C.ar    1  UNL1        0.1424
     12 F          59.7755   85.5085    6.8474 F       1  UNL1       -0.2041
     13 C          59.6946   86.9693    8.9944 C.ar    1  UNL1        0.0593
     14 C          60.3857   87.5767   10.1791 C.ar    1  UNL1        0.1452
     15 F          59.6138   88.4301   11.1414 F       1  UNL1       -0.2040
     16 C          63.8054   90.8559   13.8111 C.3     1  UNL1        0.1299
     17 C          65.1336   91.4922   13.5263 C.2     1  UNL1        0.2287
     18 O          66.3432   91.0889   14.3163 O.2     1  UNL1       -0.2747
     19 N          65.2521   92.5319   12.4516 N.am    1  UNL1       -0.3001
     20 H          64.4582   92.7967   11.9331 H       1  UNL1        0.1498
     21 C          66.5803   93.1682   12.1669 C.3     1  UNL1        0.1172
     22 C          66.7352   94.0867   10.9912 C.ar    1  UNL1        0.0082
     23 C          66.1739   95.4766   11.0460 C.ar    1  UNL1        0.0005
     24 C          66.3288   96.3950    9.8703 C.ar    1  UNL1        0.0294
     25 C          67.0451   95.9236    8.6396 C.ar    1  UNL1        0.1410
     26 F          67.2001   96.8421    7.4638 F       1  UNL1       -0.2041
     27 C          67.6065   94.5337    8.5847 C.ar    1  UNL1        0.0408
     28 C          67.4515   93.6152    9.7605 C.ar    1  UNL1        0.0575
     29 CL         68.0129   92.2253    9.7055 Cl      1  UNL1       -0.0824
@<TRIPOS>BOND
     1     1     2    1
     2     2     3   ar
     3     3     4   ar
     4     4     8    1
     5     8     9   ar
     6     9    10   ar
     7    10    11   ar
     8    11    12    1
     9    11    13   ar
    10    13    14   ar
    11    14    15    1
    12     4     5   ar
    13     5     6    1
    14     5     7   ar
    15     7    16    1
    16    16    17    1
    17    17    18    2
    18    17    19   am
    19    19    21    1
    20    21    22    1
    21    22    23   ar
    22    23    24   ar
    23    24    25   ar
    24    25    26    1
    25    25    27   ar
    26    27    28   ar
    27    28    29    1
    28     7     2   ar
    29    28    22   ar
    30    14     8   ar
    31    19    20    1
@<TRIPOS>MOLECULE
*****
 29 31 0 0 0
SMALL
GASTEIGER

@<TRIPOS>ATOM
      1 C          64.9432   90.3370   14.8022 C.3     1  UNL1        0.0534
      2 C          64.8741   91.0050   13.4610 C.ar    1  UNL1        0.0730
      3 N          65.8311   92.0352   12.9387 N.ar    1  UNL1       -0.2314
      4 C          65.3842   92.4270   11.5614 C.ar    1  UNL1        0.1454
      5 N          64.1510   91.6390   11.2325 N.ar    1  UNL1       -0.3127
      6 C          63.3702   91.7161    9.9541 C.3     1  UNL1        0.1316
      7 C          63.8357   90.7601   12.4065 C.ar    1  UNL1        0.0611
      8 C          66.0532   93.4307   10.6696 C.ar    1  UNL1        0.0617
      9 C          65.5400   94.8388   10.6078 C.ar    1  UNL1        0.0075
     10 C          66.2089   95.8423    9.7160 C.ar    1  UNL1        0.0299
     11 C          67.3911   95.4378    8.8860 C.ar    1  UNL1        0.1424
     12 F          68.0600   96.4415    7.9942 F       1  UNL1       -0.2041
     13 C          67.9043   94.0297    8.9478 C.ar    1  UNL1        0.0593
     14 C          67.2353   93.0261    9.8396 C.ar    1  UNL1        0.1452
     15 F          67.7485   91.6180    9.9014 F       1  UNL1       -0.2040
     16 C          62.6842   89.8042   12.5082 C.3     1  UNL1        0.1299
     17 C          62.6539   88.5728   11.6523 C.2     1  UNL1        0.2287
     18 O          62.4914   88.6961   10.1662 O.2     1  UNL1       -0.2747
     19 N          62.7862   87.2180   12.2825 N.am    1  UNL1       -0.3001
     20 H          62.8929   87.1370   13.2578 H       1  UNL1        0.1498
     21 C          62.7559   85.9865   11.4266 C.3     1  UNL1        0.1172
     22 C          62.9996   84.6400   12.0409 C.ar    1  UNL1        0.0082
     23 C          62.7293   84.4213   13.5001 C.ar    1  UNL1        0.0005
     24 C          62.9730   83.0748   14.1144 C.ar    1  UNL1        0.0294
     25 C          63.4870   81.9469   13.2696 C.ar    1  UNL1        0.1410
     26 F          63.7306   80.6004   13.8840 F       1  UNL1       -0.2041
     27 C          63.7572   82.1656   11.8105 C.ar    1  UNL1        0.0408
     28 C          63.5135   83.5121   11.1961 C.ar    1  UNL1        0.0575
     29 CL         63.7838   83.7308    9.7370 Cl      1  UNL1       -0.0824
@<TRIPOS>BOND
     1     1     2    1
     2     2     3   ar
     3     3     4   ar
     4     4     8    1
     5     8     9   ar
     6     9    10   ar
     7    10    11   ar
     8    11    12    1
     9    11    13   ar
    10    13    14   ar
    11    14    15    1
    12     4     5   ar
    13     5     6    1
    14     5     7   ar
    15     7    16    1
    16    16    17    1
    17    17    18    2
    18    17    19   am
    19    19    21    1
    20    21    22    1
    21    22    23   ar
    22    23    24   ar
    23    24    25   ar
    24    25    26    1
    25    25    27   ar
    26    27    28   ar
    27    28    29    1
    28     7     2   ar
    29    28    22   ar
    30    14     8   ar
    31    19    20    1
@<TRIPOS>MOLECULE
*****
 29 31 0 0 0
SMALL
GASTEIGER

@<TRIPOS>ATOM
      1 C          63.1336   91.5457    9.8198 C.3     1  UNL1        0.0534
      2 C          63.7573   91.3391   11.1683 C.ar    1  UNL1        0.0730
      3 N          64.9594   92.0592   11.7034 N.ar    1  UNL1       -0.2314
      4 C          65.2334   91.5413   13.0842 C.ar    1  UNL1        0.1454
      5 N          64.2007   90.5011   13.4025 N.ar    1  UNL1       -0.3127
      6 C          64.0981   89.7226   14.6806 C.3     1  UNL1        0.1316
      7 C          63.2883   90.3761   12.2185 C.ar    1  UNL1        0.0611
      8 C          66.3451   91.9856   13.9880 C.ar    1  UNL1        0.0617
      9 C          66.0384   92.4546   15.3794 C.ar    1  UNL1        0.0075
     10 C          67.1501   92.8989   16.2831 C.ar    1  UNL1        0.0299
     11 C          68.5684   92.8742   15.7955 C.ar    1  UNL1        0.1424
     12 F          69.6801   93.3186   16.6994 F       1  UNL1       -0.2041
     13 C          68.8751   92.4052   14.4042 C.ar    1  UNL1        0.0593
     14 C          67.7634   91.9609   13.5004 C.ar    1  UNL1        0.1452
     15 F          68.0701   91.4919   12.1090 F       1  UNL1       -0.2040
     16 C          62.1134   89.4507   12.1045 C.3     1  UNL1        0.1299
     17 C          62.2376   88.1729   11.3288 C.2     1  UNL1        0.2287
     18 O          62.1686   88.1954    9.8305 O.2     1  UNL1       -0.2747
     19 N          62.4307   86.8726   12.0513 N.am    1  UNL1       -0.3001
     20 H          62.4760   86.8579   13.0346 H       1  UNL1        0.1498
     21 C          62.5549   85.5948   11.2755 C.3     1  UNL1        0.1172
     22 C          62.9169   84.3215   11.9808 C.ar    1  UNL1        0.0082
     23 C          62.5661   84.1396   13.4278 C.ar    1  UNL1        0.0005
     24 C          62.9281   82.8663   14.1330 C.ar    1  UNL1        0.0294
     25 C          63.6409   81.7746   13.3913 C.ar    1  UNL1        0.1410
     26 F          64.0029   80.5012   14.0966 F       1  UNL1       -0.2041
     27 C          63.9917   81.9564   11.9443 C.ar    1  UNL1        0.0408
     28 C          63.6297   83.2298   11.2390 C.ar    1  UNL1        0.0575
     29 CL         63.9805   83.4116    9.7920 Cl      1  UNL1       -0.0824
@<TRIPOS>BOND
     1     1     2    1
     2     2     3   ar
     3     3     4   ar
     4     4     8    1
     5     8     9   ar
     6     9    10   ar
     7    10    11   ar
     8    11    12    1
     9    11    13   ar
    10    13    14   ar
    11    14    15    1
    12     4     5   ar
    13     5     6    1
    14     5     7   ar
    15     7    16    1
    16    16    17    1
    17    17    18    2
    18    17    19   am
    19    19    21    1
    20    21    22    1
    21    22    23   ar
    22    23    24   ar
    23    24    25   ar
    24    25    26    1
    25    25    27   ar
    26    27    28   ar
    27    28    29    1
    28     7     2   ar
    29    28    22   ar
    30    14     8   ar
    31    19    20    1
@<TRIPOS>MOLECULE
*****
 29 31 0 0 0
SMALL
GASTEIGER

@<TRIPOS>ATOM
      1 C          66.4546   92.3449   16.1337 C.3     1  UNL1        0.0534
      2 C          66.1353   92.5522   14.6829 C.ar    1  UNL1        0.0730
      3 N          66.8517   93.4791   13.7461 N.ar    1  UNL1       -0.2314
      4 C          66.2028   93.3687   12.3983 C.ar    1  UNL1        0.1454
      5 N          65.0852   92.3736   12.5020 N.ar    1  UNL1       -0.3127
      6 C          64.1700   91.9564   11.3892 C.3     1  UNL1        0.1316
      7 C          65.0435   91.8690   13.9139 C.ar    1  UNL1        0.0611
      8 C          66.6014   94.1214   11.1634 C.ar    1  UNL1        0.0617
      9 C          66.2602   95.5758   11.0287 C.ar    1  UNL1        0.0075
     10 C          66.6588   96.3284    9.7940 C.ar    1  UNL1        0.0299
     11 C          67.3987   95.6266    8.6939 C.ar    1  UNL1        0.1424
     12 F          67.7973   96.3792    7.4591 F       1  UNL1       -0.2041
     13 C          67.7399   94.1721    8.8287 C.ar    1  UNL1        0.0593
     14 C          67.3412   93.4196   10.0634 C.ar    1  UNL1        0.1452
     15 F          67.6824   91.9651   10.1982 F       1  UNL1       -0.2040
     16 C          64.0792   90.8585   14.4609 C.3     1  UNL1        0.1299
     17 C          63.9213   89.5294   13.7839 C.2     1  UNL1        0.2287
     18 O          64.6397   88.3257   14.3179 O.2     1  UNL1       -0.2747
     19 N          63.0450   89.4039   12.5730 N.am    1  UNL1       -0.3001
     20 H          62.5735   90.1939   12.2226 H       1  UNL1        0.1498
     21 C          62.8871   88.0747   11.8960 C.3     1  UNL1        0.1172
     22 C          61.9352   87.9271   10.7462 C.ar    1  UNL1        0.0082
     23 C          61.4034   89.1455   10.0514 C.ar    1  UNL1        0.0005
     24 C          60.4516   88.9979    8.9017 C.ar    1  UNL1        0.0294
     25 C          60.0313   87.6318    8.4466 C.ar    1  UNL1        0.1410
     26 F          59.0794   87.4841    7.2968 F       1  UNL1       -0.2041
     27 C          60.5630   86.4133    9.1413 C.ar    1  UNL1        0.0408
     28 C          61.5150   86.5610   10.2911 C.ar    1  UNL1        0.0575
     29 CL         62.0467   85.3425   10.9858 Cl      1  UNL1       -0.0824
@<TRIPOS>BOND
     1     1     2    1
     2     2     3   ar
     3     3     4   ar
     4     4     8    1
     5     8     9   ar
     6     9    10   ar
     7    10    11   ar
     8    11    12    1
     9    11    13   ar
    10    13    14   ar
    11    14    15    1
    12     4     5   ar
    13     5     6    1
    14     5     7   ar
    15     7    16    1
    16    16    17    1
    17    17    18    2
    18    17    19   am
    19    19    21    1
    20    21    22    1
    21    22    23   ar
    22    23    24   ar
    23    24    25   ar
    24    25    26    1
    25    25    27   ar
    26    27    28   ar
    27    28    29    1
    28     7     2   ar
    29    28    22   ar
    30    14     8   ar
    31    19    20    1
@<TRIPOS>MOLECULE
*****
 29 31 0 0 0
SMALL
GASTEIGER

@<TRIPOS>ATOM
      1 C          60.0325   88.6991    9.0415 C.3     1  UNL1        0.0534
      2 C          60.9563   88.0313   10.0164 C.ar    1  UNL1        0.0730
      3 N          61.2549   86.5629   10.0842 N.ar    1  UNL1       -0.2314
      4 C          62.2269   86.3386   11.2044 C.ar    1  UNL1        0.1454
      5 N          62.5290   87.6685   11.8291 N.ar    1  UNL1       -0.3127
      6 C          63.4540   87.9099   12.9849 C.3     1  UNL1        0.1316
      7 C          61.7438   88.7146   11.0949 C.ar    1  UNL1        0.0611
      8 C          62.7967   85.0166   11.6260 C.ar    1  UNL1        0.0617
      9 C          62.7001   84.5806   13.0579 C.ar    1  UNL1        0.0075
     10 C          63.2698   83.2586   13.4794 C.ar    1  UNL1        0.0299
     11 C          63.9362   82.3727   12.4690 C.ar    1  UNL1        0.1424
     12 F          64.5060   81.0506   12.8905 F       1  UNL1       -0.2041
     13 C          64.0328   82.8087   11.0370 C.ar    1  UNL1        0.0593
     14 C          63.4631   84.1307   10.6155 C.ar    1  UNL1        0.1452
     15 F          63.5597   84.5667    9.1835 F       1  UNL1       -0.2040
     16 C          61.7457   90.1858   11.3877 C.3     1  UNL1        0.1299
     17 C          63.0040   90.9835   11.2136 C.2     1  UNL1        0.2287
     18 O          63.3949   91.4803    9.8533 O.2     1  UNL1       -0.2747
     19 N          63.8714   91.2844   12.3998 N.am    1  UNL1       -0.3001
     20 H          63.6148   90.9583   13.2926 H       1  UNL1        0.1498
     21 C          65.1297   92.0822   12.2258 C.3     1  UNL1        0.1172
     22 C          66.1327   92.1531   13.3387 C.ar    1  UNL1        0.0082
     23 C          65.6713   92.3437   14.7533 C.ar    1  UNL1        0.0005
     24 C          66.6744   92.4147   15.8662 C.ar    1  UNL1        0.0294
     25 C          68.1389   92.2950   15.5648 C.ar    1  UNL1        0.1410
     26 F          69.1420   92.3660   16.6778 F       1  UNL1       -0.2041
     27 C          68.6003   92.1044   14.1503 C.ar    1  UNL1        0.0408
     28 C          67.5972   92.0334   13.0373 C.ar    1  UNL1        0.0575
     29 CL         68.0586   91.8428   11.6228 Cl      1  UNL1       -0.0824
@<TRIPOS>BOND
     1     1     2    1
     2     2     3   ar
     3     3     4   ar
     4     4     8    1
     5     8     9   ar
     6     9    10   ar
     7    10    11   ar
     8    11    12    1
     9    11    13   ar
    10    13    14   ar
    11    14    15    1
    12     4     5   ar
    13     5     6    1
    14     5     7   ar
    15     7    16    1
    16    16    17    1
    17    17    18    2
    18    17    19   am
    19    19    21    1
    20    21    22    1
    21    22    23   ar
    22    23    24   ar
    23    24    25   ar
    24    25    26    1
    25    25    27   ar
    26    27    28   ar
    27    28    29    1
    28     7     2   ar
    29    28    22   ar
    30    14     8   ar
    31    19    20    1
@<TRIPOS>MOLECULE
*****
 29 31 0 0 0
SMALL
GASTEIGER

@<TRIPOS>ATOM
      1 C          63.0496   88.5495   12.1595 C.3     1  UNL1        0.0534
      2 C          63.2604   87.1415   12.6318 C.ar    1  UNL1        0.0730
      3 N          62.9171   85.8954   11.8706 N.ar    1  UNL1       -0.2314
      4 C          63.2961   84.7161   12.7166 C.ar    1  UNL1        0.1454
      5 N          63.8736   85.2334   14.0007 N.ar    1  UNL1       -0.3127
      6 C          64.3837   84.3983   15.1376 C.3     1  UNL1        0.1316
      7 C          63.8516   86.7323   13.9483 C.ar    1  UNL1        0.0611
      8 C          63.1271   83.2730   12.3439 C.ar    1  UNL1        0.0617
      9 C          62.4923   82.3180   13.3109 C.ar    1  UNL1        0.0075
     10 C          62.3234   80.8750   12.9382 C.ar    1  UNL1        0.0299
     11 C          62.7893   80.3868   11.5985 C.ar    1  UNL1        0.1424
     12 F          62.6203   78.9437   11.2258 F       1  UNL1       -0.2041
     13 C          63.4240   81.3418   10.6315 C.ar    1  UNL1        0.0593
     14 C          63.5930   82.7849   11.0043 C.ar    1  UNL1        0.1452
     15 F          64.2278   83.7399   10.0373 F       1  UNL1       -0.2040
     16 C          64.3358   87.6593   15.0236 C.3     1  UNL1        0.1299
     17 C          64.0771   89.1329   14.9159 C.2     1  UNL1        0.2287
     18 O          62.7314   89.6866   15.2800 O.2     1  UNL1       -0.2747
     19 N          65.1640   90.0527   14.4442 N.am    1  UNL1       -0.3001
     20 H          66.0472   89.6892   14.2053 H       1  UNL1        0.1498
     21 C          64.9053   91.5263   14.3365 C.3     1  UNL1        0.1172
     22 C          65.2541   92.2588   13.0750 C.ar    1  UNL1        0.0082
     23 C          64.6466   91.8366   11.7701 C.ar    1  UNL1        0.0005
     24 C          64.9955   92.5691   10.5085 C.ar    1  UNL1        0.0294
     25 C          65.9518   93.7238   10.5517 C.ar    1  UNL1        0.1410
     26 F          66.3007   94.4564    9.2900 F       1  UNL1       -0.2041
     27 C          66.5594   94.1460   11.8565 C.ar    1  UNL1        0.0408
     28 C          66.2105   93.4135   13.1182 C.ar    1  UNL1        0.0575
     29 CL         66.8180   93.8357   14.4230 Cl      1  UNL1       -0.0824
@<TRIPOS>BOND
     1     1     2    1
     2     2     3   ar
     3     3     4   ar
     4     4     8    1
     5     8     9   ar
     6     9    10   ar
     7    10    11   ar
     8    11    12    1
     9    11    13   ar
    10    13    14   ar
    11    14    15    1
    12     4     5   ar
    13     5     6    1
    14     5     7   ar
    15     7    16    1
    16    16    17    1
    17    17    18    2
    18    17    19   am
    19    19    21    1
    20    21    22    1
    21    22    23   ar
    22    23    24   ar
    23    24    25   ar
    24    25    26    1
    25    25    27   ar
    26    27    28   ar
    27    28    29    1
    28     7     2   ar
    29    28    22   ar
    30    14     8   ar
    31    19    20    1
@<TRIPOS>MOLECULE
*****
 29 31 0 0 0
SMALL
GASTEIGER

@<TRIPOS>ATOM
      1 C          61.8491   90.4423   10.7070 C.3     1  UNL1        0.0534
      2 C          62.4078   89.3008   11.5037 C.ar    1  UNL1        0.0730
      3 N          62.2965   87.8457   11.1570 N.ar    1  UNL1       -0.2314
      4 C          62.9959   87.0596   12.2261 C.ar    1  UNL1        0.1454
      5 N          63.5394   88.0289   13.2336 N.ar    1  UNL1       -0.3127
      6 C          64.3109   87.6752   14.4704 C.3     1  UNL1        0.1316
      7 C          63.1760   89.4140   12.7872 C.ar    1  UNL1        0.0611
      8 C          63.1284   85.5663   12.2785 C.ar    1  UNL1        0.0617
      9 C          63.3298   84.8770   13.5954 C.ar    1  UNL1        0.0075
     10 C          63.4623   83.3838   13.6477 C.ar    1  UNL1        0.0299
     11 C          63.3935   82.5800   12.3832 C.ar    1  UNL1        0.1424
     12 F          63.5260   81.0867   12.4356 F       1  UNL1       -0.2041
     13 C          63.1921   83.2693   11.0663 C.ar    1  UNL1        0.0593
     14 C          63.0596   84.7625   11.0140 C.ar    1  UNL1        0.1452
     15 F          62.8582   85.4519    9.6971 F       1  UNL1       -0.2040
     16 C          63.5203   90.6886   13.4992 C.3     1  UNL1        0.1299
     17 C          64.8776   91.3025   13.3240 C.2     1  UNL1        0.2287
     18 O          66.0111   90.8822   14.2119 O.2     1  UNL1       -0.2747
     19 N          65.1015   92.3367   12.2608 N.am    1  UNL1       -0.3001
     20 H          64.3575   92.6126   11.6780 H       1  UNL1        0.1498
     21 C          66.4588   92.9506   12.0856 C.3     1  UNL1        0.1172
     22 C          66.7026   93.9265   10.9729 C.ar    1  UNL1        0.0082
     23 C          66.1658   95.3239   11.0698 C.ar    1  UNL1        0.0005
     24 C          66.4096   96.2998    9.9571 C.ar    1  UNL1        0.0294
     25 C          67.1902   95.8785    8.7475 C.ar    1  UNL1        0.1410
     26 F          67.4340   96.8544    7.6348 F       1  UNL1       -0.2041
     27 C          67.7270   94.4812    8.6506 C.ar    1  UNL1        0.0408
     28 C          67.4832   93.5052    9.7633 C.ar    1  UNL1        0.0575
     29 CL         68.0200   92.1079    9.6664 Cl      1  UNL1       -0.0824
@<TRIPOS>BOND
     1     1     2    1
     2     2     3   ar
     3     3     4   ar
     4     4     8    1
     5     8     9   ar
     6     9    10   ar
     7    10    11   ar
     8    11    12    1
     9    11    13   ar
    10    13    14   ar
    11    14    15    1
    12     4     5   ar
    13     5     6    1
    14     5     7   ar
    15     7    16    1
    16    16    17    1
    17    17    18    2
    18    17    19   am
    19    19    21    1
    20    21    22    1
    21    22    23   ar
    22    23    24   ar
    23    24    25   ar
    24    25    26    1
    25    25    27   ar
    26    27    28   ar
    27    28    29    1
    28     7     2   ar
    29    28    22   ar
    30    14     8   ar
    31    19    20    1
@<TRIPOS>MOLECULE
*****
 29 31 0 0 0
SMALL
GASTEIGER

@<TRIPOS>ATOM
      1 C          64.5714   88.1014   14.7095 C.3     1  UNL1        0.0534
      2 C          63.9164   87.0109   13.9147 C.ar    1  UNL1        0.0730
      3 N          63.9109   85.5508   14.2585 N.ar    1  UNL1       -0.2314
      4 C          63.1429   84.8265   13.1928 C.ar    1  UNL1        0.1454
      5 N          62.6738   85.8389   12.1904 N.ar    1  UNL1       -0.3127
      6 C          61.8681   85.5518   10.9581 C.3     1  UNL1        0.1316
      7 C          63.1517   87.1889   12.6365 C.ar    1  UNL1        0.0611
      8 C          62.8888   83.3491   13.1390 C.ar    1  UNL1        0.0617
      9 C          62.0834   82.6869   14.2173 C.ar    1  UNL1        0.0075
     10 C          61.8293   81.2096   14.1635 C.ar    1  UNL1        0.0299
     11 C          62.3805   80.3945   13.0314 C.ar    1  UNL1        0.1424
     12 F          62.1264   78.9171   12.9776 F       1  UNL1       -0.2041
     13 C          63.1859   81.0567   11.9531 C.ar    1  UNL1        0.0593
     14 C          63.4400   82.5340   12.0069 C.ar    1  UNL1        0.1452
     15 F          64.2454   83.1963   10.9285 F       1  UNL1       -0.2040
     16 C          62.9079   88.4888   11.9287 C.3     1  UNL1        0.1299
     17 C          63.1811   89.7868   12.6290 C.2     1  UNL1        0.2287
     18 O          62.3709   90.1761   13.8299 O.2     1  UNL1       -0.2747
     19 N          64.2644   90.6956   12.1285 N.am    1  UNL1       -0.3001
     20 H          64.7962   90.4402   11.3403 H       1  UNL1        0.1498
     21 C          64.5376   91.9937   12.8288 C.3     1  UNL1        0.1172
     22 C          65.7070   92.1115   13.7606 C.ar    1  UNL1        0.0082
     23 C          65.4851   92.1316   15.2440 C.ar    1  UNL1        0.0005
     24 C          66.6545   92.2494   16.1758 C.ar    1  UNL1        0.0294
     25 C          68.0461   92.3472   15.6243 C.ar    1  UNL1        0.1410
     26 F          69.2156   92.4650   16.5562 F       1  UNL1       -0.2041
     27 C          68.2680   92.3271   14.1410 C.ar    1  UNL1        0.0408
     28 C          67.0985   92.2092   13.2092 C.ar    1  UNL1        0.0575
     29 CL         67.3205   92.1891   11.7258 Cl      1  UNL1       -0.0824
@<TRIPOS>BOND
     1     1     2    1
     2     2     3   ar
     3     3     4   ar
     4     4     8    1
     5     8     9   ar
     6     9    10   ar
     7    10    11   ar
     8    11    12    1
     9    11    13   ar
    10    13    14   ar
    11    14    15    1
    12     4     5   ar
    13     5     6    1
    14     5     7   ar
    15     7    16    1
    16    16    17    1
    17    17    18    2
    18    17    19   am
    19    19    21    1
    20    21    22    1
    21    22    23   ar
    22    23    24   ar
    23    24    25   ar
    24    25    26    1
    25    25    27   ar
    26    27    28   ar
    27    28    29    1
    28     7     2   ar
    29    28    22   ar
    30    14     8   ar
    31    19    20    1
