@<TRIPOS>MOLECULE
*****
 31 35 0 0 0
SMALL
GASTEIGER

@<TRIPOS>ATOM
      1 C          64.4228   90.7189   13.3975 C.3     1  UNL1        0.1074
      2 C          63.6066   91.2830   12.2724 C.3     1  UNL1        0.0694
      3 C          62.8324   90.1581   11.6519 C.3     1  UNL1        0.2385
      4 F          61.8867   90.2725   10.4932 F       1  UNL1       -0.2273
      5 C          63.1701   88.8986   12.3934 C.2     1  UNL1        0.2588
      6 O          62.6213   87.5325   12.1065 O.2     1  UNL1       -0.2719
      7 N          64.1529   89.2452   13.4722 N.am    1  UNL1       -0.2708
      8 C          66.7055   91.8931   13.7982 C.ar    1  UNL1        0.1392
      9 C          67.6292   92.6667   14.6916 C.ar    1  UNL1        0.0368
     10 C          67.1939   93.0398   16.0777 C.ar    1  UNL1        0.0062
     11 C          65.8350   92.6393   16.5704 C.ar    1  UNL1        0.0368
     12 C          64.9112   91.8657   15.6770 C.ar    1  UNL1        0.1392
     13 C          65.3464   91.4925   14.2909 C.ar    1  UNL1        0.0637
     14 C          67.0117   92.5107   11.2933 C.3     1  UNL1        0.2525
     15 O          67.1407   91.5199   12.4121 O.3     1  UNL1       -0.4716
     16 O          63.5522   91.4652   16.1697 O.3     1  UNL1       -0.4716
     17 C          63.3600   90.1398   16.8452 C.3     1  UNL1        0.2525
     18 C          64.7595   88.2865   14.4535 C.3     1  UNL1        0.1205
     19 C          64.1192   86.9510   14.6910 C.ar    1  UNL1       -0.0021
     20 C          63.4651   86.6564   16.0084 C.ar    1  UNL1        0.0005
     21 C          62.8249   85.3208   16.2458 C.ar    1  UNL1        0.0372
     22 C          62.8386   84.2799   15.1658 C.ar    1  UNL1        0.1453
     23 O          62.2925   82.8840   15.1102 O.2     1  UNL1       -0.4535
     24 C          62.6090   82.3158   13.7586 C.ar    1  UNL1        0.1453
     25 C          62.3176   80.9821   13.1371 C.ar    1  UNL1        0.0375
     26 C          62.7679   80.6932   11.7358 C.ar    1  UNL1        0.0031
     27 C          63.5096   81.7380   10.9560 C.ar    1  UNL1        0.0002
     28 C          63.8010   83.0717   11.5774 C.ar    1  UNL1        0.0031
     29 C          63.3507   83.3606   12.9787 C.ar    1  UNL1        0.0375
     30 C          63.4926   84.5745   13.8484 C.ar    1  UNL1        0.0372
     31 C          64.1329   85.9100   13.6110 C.ar    1  UNL1        0.0005
@<TRIPOS>BOND
     1    14    15    1
     2    15     8    1
     3     8     9   ar
     4     9    10   ar
     5    10    11   ar
     6    11    12   ar
     7    12    16    1
     8    16    17    1
     9    12    13   ar
    10     1    13    1
    11     1     2    1
    12     2     3    1
    13     3     4    1
    14     3     5    1
    15     5     6    2
    16     5     7   am
    17     7    18    1
    18    18    19    1
    19    19    20   ar
    20    20    21   ar
    21    21    22   ar
    22    22    23   ar
    23    23    24   ar
    24    24    25   ar
    25    25    26   ar
    26    26    27   ar
    27    27    28   ar
    28    28    29   ar
    29    29    30   ar
    30    30    31   ar
    31    13     8   ar
    32     7     1    1
    33    31    19   ar
    34    30    22   ar
    35    29    24   ar
@<TRIPOS>MOLECULE
*****
 31 35 0 0 0
SMALL
GASTEIGER

@<TRIPOS>ATOM
      1 C          64.4189   90.7197   13.3918 C.3     1  UNL1        0.1074
      2 C          63.6042   91.2817   12.2647 C.3     1  UNL1        0.0694
      3 C          62.8300   90.1559   11.6459 C.3     1  UNL1        0.2385
      4 F          61.8854   90.2681   10.4861 F       1  UNL1       -0.2273
      5 C          63.1661   88.8979   12.3906 C.2     1  UNL1        0.2588
      6 O          62.6168   87.5314   12.1062 O.2     1  UNL1       -0.2719
      7 N          64.1481   89.2464   13.4696 N.am    1  UNL1       -0.2708
      8 C          64.9074   91.8677   15.6707 C.ar    1  UNL1        0.1392
      9 C          65.8307   92.6428   16.5633 C.ar    1  UNL1        0.0368
     10 C          67.1887   93.0451   16.0695 C.ar    1  UNL1        0.0062
     11 C          67.6235   92.6723   14.6832 C.ar    1  UNL1        0.0368
     12 C          66.7002   91.8972   13.7906 C.ar    1  UNL1        0.1392
     13 C          65.3421   91.4948   14.2843 C.ar    1  UNL1        0.0637
     14 C          63.3608   90.1429   16.8469 C.3     1  UNL1        0.2525
     15 O          63.5493   91.4654   16.1645 O.3     1  UNL1       -0.4716
     16 O          67.1350   91.5243   12.4042 O.3     1  UNL1       -0.4716
     17 C          67.0026   92.5142   11.2851 C.3     1  UNL1        0.2525
     18 C          64.7532   88.2896   14.4537 C.3     1  UNL1        0.1205
     19 C          64.1170   86.9512   14.6867 C.ar    1  UNL1       -0.0021
     20 C          63.4657   86.6495   16.0039 C.ar    1  UNL1        0.0005
     21 C          62.8297   85.3112   16.2369 C.ar    1  UNL1        0.0372
     22 C          62.8449   84.2746   15.1528 C.ar    1  UNL1        0.1453
     23 O          62.3027   82.8773   15.0925 O.2     1  UNL1       -0.4535
     24 C          62.6189   82.3154   13.7382 C.ar    1  UNL1        0.1453
     25 C          62.3305   80.9833   13.1119 C.ar    1  UNL1        0.0375
     26 C          62.7797   80.7013   11.7088 C.ar    1  UNL1        0.0031
     27 C          63.5173   81.7513   10.9321 C.ar    1  UNL1        0.0002
     28 C          63.8058   83.0834   11.5583 C.ar    1  UNL1        0.0031
     29 C          63.3566   83.3654   12.9614 C.ar    1  UNL1        0.0375
     30 C          63.4962   84.5763   13.8357 C.ar    1  UNL1        0.0372
     31 C          64.1323   85.9146   13.6027 C.ar    1  UNL1        0.0005
@<TRIPOS>BOND
     1    14    15    1
     2    15     8    1
     3     8     9   ar
     4     9    10   ar
     5    10    11   ar
     6    11    12   ar
     7    12    16    1
     8    16    17    1
     9    12    13   ar
    10     1    13    1
    11     1     2    1
    12     2     3    1
    13     3     4    1
    14     3     5    1
    15     5     6    2
    16     5     7   am
    17     7    18    1
    18    18    19    1
    19    19    20   ar
    20    20    21   ar
    21    21    22   ar
    22    22    23   ar
    23    23    24   ar
    24    24    25   ar
    25    25    26   ar
    26    26    27   ar
    27    27    28   ar
    28    28    29   ar
    29    29    30   ar
    30    30    31   ar
    31    13     8   ar
    32     7     1    1
    33    31    19   ar
    34    30    22   ar
    35    29    24   ar
@<TRIPOS>MOLECULE
*****
 31 35 0 0 0
SMALL
GASTEIGER

@<TRIPOS>ATOM
      1 C          61.4769   86.3378    9.9788 C.3     1  UNL1        0.1074
      2 C          60.4002   86.3285    8.9345 C.3     1  UNL1        0.0694
      3 C          59.6515   87.6248    9.0289 C.3     1  UNL1        0.2385
      4 F          58.4924   88.0381    8.1712 F       1  UNL1       -0.2273
      5 C          60.2655   88.4354   10.1316 C.2     1  UNL1        0.2588
      6 O          59.8282   89.8015   10.5702 O.2     1  UNL1       -0.2719
      7 N          61.3936   87.6400   10.7187 N.am    1  UNL1       -0.2708
      8 C          62.6279   84.6891   11.6241 C.ar    1  UNL1        0.1392
      9 C          63.6146   83.5893   11.8831 C.ar    1  UNL1        0.0368
     10 C          64.4368   83.0386   10.7559 C.ar    1  UNL1        0.0062
     11 C          64.2724   83.5876    9.3697 C.ar    1  UNL1        0.0368
     12 C          63.2857   84.6873    9.1106 C.ar    1  UNL1        0.1392
     13 C          62.4635   85.2381   10.2378 C.ar    1  UNL1        0.0637
     14 C          62.1253   84.8617   14.1672 C.3     1  UNL1        0.2525
     15 O          61.8057   85.2398   12.7512 O.3     1  UNL1       -0.4716
     16 O          63.1213   85.2363    7.7244 O.3     1  UNL1       -0.4716
     17 C          62.3723   84.4494    6.6901 C.3     1  UNL1        0.2525
     18 C          62.2824   88.0710   11.8475 C.3     1  UNL1        0.1205
     19 C          63.0393   89.3628   11.7549 C.ar    1  UNL1       -0.0021
     20 C          62.9647   90.1879   10.5044 C.ar    1  UNL1        0.0005
     21 C          63.7216   91.4796   10.4119 C.ar    1  UNL1        0.0372
     22 C          64.5531   91.9463   11.5698 C.ar    1  UNL1        0.1453
     23 O          65.4022   93.1667   11.7685 O.2     1  UNL1       -0.4535
     24 C          66.0016   93.0960   13.1417 C.ar    1  UNL1        0.1453
     25 C          66.9213   94.0194   13.8841 C.ar    1  UNL1        0.0375
     26 C          67.3625   93.6786   15.2766 C.ar    1  UNL1        0.0031
     27 C          66.8838   92.4144   15.9267 C.ar    1  UNL1        0.0002
     28 C          65.9640   91.4910   15.1843 C.ar    1  UNL1        0.0031
     29 C          65.5229   91.8318   13.7918 C.ar    1  UNL1        0.0375
     30 C          64.6277   91.1212   12.8203 C.ar    1  UNL1        0.0372
     31 C          63.8708   89.8295   12.9129 C.ar    1  UNL1        0.0005
@<TRIPOS>BOND
     1    14    15    1
     2    15     8    1
     3     8     9   ar
     4     9    10   ar
     5    10    11   ar
     6    11    12   ar
     7    12    16    1
     8    16    17    1
     9    12    13   ar
    10     1    13    1
    11     1     2    1
    12     2     3    1
    13     3     4    1
    14     3     5    1
    15     5     6    2
    16     5     7   am
    17     7    18    1
    18    18    19    1
    19    19    20   ar
    20    20    21   ar
    21    21    22   ar
    22    22    23   ar
    23    23    24   ar
    24    24    25   ar
    25    25    26   ar
    26    26    27   ar
    27    27    28   ar
    28    28    29   ar
    29    29    30   ar
    30    30    31   ar
    31    13     8   ar
    32     7     1    1
    33    31    19   ar
    34    30    22   ar
    35    29    24   ar
@<TRIPOS>MOLECULE
*****
 31 35 0 0 0
SMALL
GASTEIGER

@<TRIPOS>ATOM
      1 C          61.4749   86.3429    9.9588 C.3     1  UNL1        0.1074
      2 C          60.3992   86.3356    8.9134 C.3     1  UNL1        0.0694
      3 C          59.6519   87.6327    9.0081 C.3     1  UNL1        0.2385
      4 F          58.4940   88.0479    8.1497 F       1  UNL1       -0.2273
      5 C          60.2658   88.4418   10.1120 C.2     1  UNL1        0.2588
      6 O          59.8296   89.8080   10.5513 O.2     1  UNL1       -0.2719
      7 N          61.3924   87.6447   10.6995 N.am    1  UNL1       -0.2708
      8 C          63.2824   84.6907    9.0908 C.ar    1  UNL1        0.1392
      9 C          64.2676   83.5897    9.3498 C.ar    1  UNL1        0.0368
     10 C          64.4305   83.0399   10.7359 C.ar    1  UNL1        0.0062
     11 C          63.6083   83.5911   11.8629 C.ar    1  UNL1        0.0368
     12 C          62.6231   84.6921   11.6038 C.ar    1  UNL1        0.1392
     13 C          62.4601   85.2420   10.2178 C.ar    1  UNL1        0.0637
     14 C          62.3666   84.4569    6.6708 C.3     1  UNL1        0.2525
     15 O          63.1194   85.2406    7.7048 O.3     1  UNL1       -0.4716
     16 O          61.8008   85.2433   12.7308 O.3     1  UNL1       -0.4716
     17 C          62.1235   84.8696   14.1472 C.3     1  UNL1        0.2525
     18 C          62.2807   88.0739   11.8294 C.3     1  UNL1        0.1205
     19 C          63.0389   89.3651   11.7387 C.ar    1  UNL1       -0.0021
     20 C          62.9677   90.1903   10.4881 C.ar    1  UNL1        0.0005
     21 C          63.7258   91.4814   10.3974 C.ar    1  UNL1        0.0372
     22 C          64.5550   91.9474   11.5572 C.ar    1  UNL1        0.1453
     23 O          65.4046   93.1671   11.7579 O.2     1  UNL1       -0.4535
     24 C          66.0009   93.0958   13.1324 C.ar    1  UNL1        0.1453
     25 C          66.9197   94.0185   13.8770 C.ar    1  UNL1        0.0375
     26 C          67.3574   93.6772   15.2705 C.ar    1  UNL1        0.0031
     27 C          66.8763   92.4133   15.9194 C.ar    1  UNL1        0.0002
     28 C          65.9575   91.4907   15.1748 C.ar    1  UNL1        0.0031
     29 C          65.5198   91.8319   13.7814 C.ar    1  UNL1        0.0375
     30 C          64.6262   91.1222   12.8078 C.ar    1  UNL1        0.0372
     31 C          63.8681   89.8310   12.8985 C.ar    1  UNL1        0.0005
@<TRIPOS>BOND
     1    14    15    1
     2    15     8    1
     3     8     9   ar
     4     9    10   ar
     5    10    11   ar
     6    11    12   ar
     7    12    16    1
     8    16    17    1
     9    12    13   ar
    10     1    13    1
    11     1     2    1
    12     2     3    1
    13     3     4    1
    14     3     5    1
    15     5     6    2
    16     5     7   am
    17     7    18    1
    18    18    19    1
    19    19    20   ar
    20    20    21   ar
    21    21    22   ar
    22    22    23   ar
    23    23    24   ar
    24    24    25   ar
    25    25    26   ar
    26    26    27   ar
    27    27    28   ar
    28    28    29   ar
    29    29    30   ar
    30    30    31   ar
    31    13     8   ar
    32     7     1    1
    33    31    19   ar
    34    30    22   ar
    35    29    24   ar
@<TRIPOS>MOLECULE
*****
 31 35 0 0 0
SMALL
GASTEIGER

@<TRIPOS>ATOM
      1 C          61.9957   86.4444   10.9690 C.3     1  UNL1        0.1074
      2 C          60.8901   86.8292   10.0311 C.3     1  UNL1        0.0694
      3 C          60.5053   88.2487   10.3256 C.3     1  UNL1        0.2385
      4 F          59.4398   89.0372    9.6234 F       1  UNL1       -0.2273
      5 C          61.3729   88.7413   11.4456 C.2     1  UNL1        0.2588
      6 O          61.3275   90.1089   12.0600 O.2     1  UNL1       -0.2719
      7 N          62.2940   87.6262   11.8432 N.am    1  UNL1       -0.2708
      8 C          62.7016   84.3297   12.3030 C.ar    1  UNL1        0.1392
      9 C          63.3882   82.9971   12.3573 C.ar    1  UNL1        0.0368
     10 C          64.0553   82.4468   11.1317 C.ar    1  UNL1        0.0062
     11 C          64.0359   83.2290    9.8520 C.ar    1  UNL1        0.0368
     12 C          63.3494   84.5615    9.7977 C.ar    1  UNL1        0.1392
     13 C          62.6822   85.1119   11.0232 C.ar    1  UNL1        0.0637
     14 C          62.2581   84.2283   14.8609 C.3     1  UNL1        0.2525
     15 O          62.0345   84.8801   13.5286 O.3     1  UNL1       -0.4716
     16 O          63.3299   85.3437    8.5179 O.3     1  UNL1       -0.4716
     17 C          62.5665   84.8269    7.3347 C.3     1  UNL1        0.2525
     18 C          63.3314   87.6830   12.9252 C.3     1  UNL1        0.1205
     19 C          63.9048   89.0037   13.3460 C.ar    1  UNL1       -0.0021
     20 C          64.0516   89.3275   14.8032 C.ar    1  UNL1        0.0005
     21 C          64.6250   90.6482   15.2240 C.ar    1  UNL1        0.0372
     22 C          65.0517   91.6450   14.1875 C.ar    1  UNL1        0.1453
     23 O          65.6461   93.0176   14.2996 O.2     1  UNL1       -0.4535
     24 C          65.8668   93.5421   12.9117 C.ar    1  UNL1        0.1453
     25 C          66.4257   94.8388   12.4059 C.ar    1  UNL1        0.0375
     26 C          66.5265   95.0872   10.9301 C.ar    1  UNL1        0.0031
     27 C          66.0683   94.0387    9.9601 C.ar    1  UNL1        0.0002
     28 C          65.5095   92.7419   10.4659 C.ar    1  UNL1        0.0031
     29 C          65.4087   92.4936   11.9418 C.ar    1  UNL1        0.0375
     30 C          64.9049   91.3212   12.7302 C.ar    1  UNL1        0.0372
     31 C          64.3315   90.0005   12.3095 C.ar    1  UNL1        0.0005
@<TRIPOS>BOND
     1    14    15    1
     2    15     8    1
     3     8     9   ar
     4     9    10   ar
     5    10    11   ar
     6    11    12   ar
     7    12    16    1
     8    16    17    1
     9    12    13   ar
    10     1    13    1
    11     1     2    1
    12     2     3    1
    13     3     4    1
    14     3     5    1
    15     5     6    2
    16     5     7   am
    17     7    18    1
    18    18    19    1
    19    19    20   ar
    20    20    21   ar
    21    21    22   ar
    22    22    23   ar
    23    23    24   ar
    24    24    25   ar
    25    25    26   ar
    26    26    27   ar
    27    27    28   ar
    28    28    29   ar
    29    29    30   ar
    30    30    31   ar
    31    13     8   ar
    32     7     1    1
    33    31    19   ar
    34    30    22   ar
    35    29    24   ar
@<TRIPOS>MOLECULE
*****
 31 35 0 0 0
SMALL
GASTEIGER

@<TRIPOS>ATOM
      1 C          61.9901   86.4307   10.9845 C.3     1  UNL1        0.1074
      2 C          60.9011   86.8086   10.0247 C.3     1  UNL1        0.0694
      3 C          60.5048   88.2271   10.3083 C.3     1  UNL1        0.2385
      4 F          59.4496   89.0095    9.5840 F       1  UNL1       -0.2273
      5 C          61.3489   88.7261   11.4434 C.2     1  UNL1        0.2588
      6 O          61.2861   90.0950   12.0535 O.2     1  UNL1       -0.2719
      7 N          62.2669   87.6159   11.8613 N.am    1  UNL1       -0.2708
      8 C          63.3665   84.5468    9.8414 C.ar    1  UNL1        0.1392
      9 C          64.0574   83.2173    9.9120 C.ar    1  UNL1        0.0368
     10 C          64.0630   82.4422   11.1962 C.ar    1  UNL1        0.0062
     11 C          63.3776   82.9966   12.4098 C.ar    1  UNL1        0.0368
     12 C          62.6866   84.3262   12.3392 C.ar    1  UNL1        0.1392
     13 C          62.6811   85.1013   11.0551 C.ar    1  UNL1        0.0637
     14 C          62.5857   84.8137    7.3779 C.3     1  UNL1        0.2525
     15 O          63.3609   85.3219    8.5572 O.3     1  UNL1       -0.4716
     16 O          62.0013   84.8806   13.5529 O.3     1  UNL1       -0.4716
     17 C          62.2799   84.2941   14.9050 C.3     1  UNL1        0.2525
     18 C          63.2832   87.6796   12.9627 C.3     1  UNL1        0.1205
     19 C          63.8617   89.0011   13.3739 C.ar    1  UNL1       -0.0021
     20 C          63.9983   89.3399   14.8288 C.ar    1  UNL1        0.0005
     21 C          64.5768   90.6613   15.2400 C.ar    1  UNL1        0.0372
     22 C          65.0186   91.6440   14.1964 C.ar    1  UNL1        0.1453
     23 O          65.6211   93.0139   14.2986 O.2     1  UNL1       -0.4535
     24 C          65.8568   93.5217   12.9071 C.ar    1  UNL1        0.1453
     25 C          66.4284   94.8093   12.3919 C.ar    1  UNL1        0.0375
     26 C          66.5432   95.0408   10.9144 C.ar    1  UNL1        0.0031
     27 C          66.0864   93.9848    9.9520 C.ar    1  UNL1        0.0002
     28 C          65.5148   92.6973   10.4671 C.ar    1  UNL1        0.0031
     29 C          65.4000   92.4657   11.9447 C.ar    1  UNL1        0.0375
     30 C          64.8820   91.3052   12.7415 C.ar    1  UNL1        0.0372
     31 C          64.3035   89.9838   12.3303 C.ar    1  UNL1        0.0005
@<TRIPOS>BOND
     1    14    15    1
     2    15     8    1
     3     8     9   ar
     4     9    10   ar
     5    10    11   ar
     6    11    12   ar
     7    12    16    1
     8    16    17    1
     9    12    13   ar
    10     1    13    1
    11     1     2    1
    12     2     3    1
    13     3     4    1
    14     3     5    1
    15     5     6    2
    16     5     7   am
    17     7    18    1
    18    18    19    1
    19    19    20   ar
    20    20    21   ar
    21    21    22   ar
    22    22    23   ar
    23    23    24   ar
    24    24    25   ar
    25    25    26   ar
    26    26    27   ar
    27    27    28   ar
    28    28    29   ar
    29    29    30   ar
    30    30    31   ar
    31    13     8   ar
    32     7     1    1
    33    31    19   ar
    34    30    22   ar
    35    29    24   ar
@<TRIPOS>MOLECULE
*****
 31 35 0 0 0
SMALL
GASTEIGER

@<TRIPOS>ATOM
      1 C          62.2005   86.3740   11.5624 C.3     1  UNL1        0.1074
      2 C          62.3886   84.9817   12.0877 C.3     1  UNL1        0.0694
      3 C          63.3375   85.0479   13.2475 C.3     1  UNL1        0.2385
      4 F          63.8058   83.8850   14.0711 F       1  UNL1       -0.2273
      5 C          63.7358   86.4813   13.4392 C.2     1  UNL1        0.2588
      6 O          64.6724   87.0035   14.4880 O.2     1  UNL1       -0.2719
      7 N          63.0331   87.3009   12.3978 N.am    1  UNL1       -0.2708
      8 C          60.1981   87.7297   10.6124 C.ar    1  UNL1        0.1392
      9 C          59.3298   88.1258    9.4551 C.ar    1  UNL1        0.0368
     10 C          59.5956   87.5621    8.0907 C.ar    1  UNL1        0.0062
     11 C          60.7297   86.6024    7.8836 C.ar    1  UNL1        0.0368
     12 C          61.5980   86.2064    9.0408 C.ar    1  UNL1        0.1392
     13 C          61.3322   86.7700   10.4052 C.ar    1  UNL1        0.0637
     14 C          59.4882   89.7183   12.1262 C.3     1  UNL1        0.2525
     15 O          59.9323   88.2934   11.9768 O.3     1  UNL1       -0.4716
     16 O          62.7321   85.2468    8.8336 O.3     1  UNL1       -0.4716
     17 C          62.9977   84.6829    7.4693 C.3     1  UNL1        0.2525
     18 C          63.1436   88.7865   12.2224 C.3     1  UNL1        0.1205
     19 C          63.6439   89.6397   13.3502 C.ar    1  UNL1       -0.0021
     20 C          62.7666   89.9023   14.5382 C.ar    1  UNL1        0.0005
     21 C          63.2669   90.7555   15.6659 C.ar    1  UNL1        0.0372
     22 C          64.6444   91.3461   15.6056 C.ar    1  UNL1        0.1453
     23 O          65.4045   92.2200   16.5588 O.2     1  UNL1       -0.4535
     24 C          66.7514   92.4975   15.9600 C.ar    1  UNL1        0.1453
     25 C          67.9213   93.2990   16.4487 C.ar    1  UNL1        0.0375
     26 C          69.1637   93.3981   15.6140 C.ar    1  UNL1        0.0031
     27 C          69.2361   92.6957   14.2906 C.ar    1  UNL1        0.0002
     28 C          68.0663   91.8941   13.8019 C.ar    1  UNL1        0.0031
     29 C          66.8239   91.7951   14.6366 C.ar    1  UNL1        0.0375
     30 C          65.5217   91.0835   14.4176 C.ar    1  UNL1        0.0372
     31 C          65.0214   90.2303   13.2899 C.ar    1  UNL1        0.0005
@<TRIPOS>BOND
     1    14    15    1
     2    15     8    1
     3     8     9   ar
     4     9    10   ar
     5    10    11   ar
     6    11    12   ar
     7    12    16    1
     8    16    17    1
     9    12    13   ar
    10     1    13    1
    11     1     2    1
    12     2     3    1
    13     3     4    1
    14     3     5    1
    15     5     6    2
    16     5     7   am
    17     7    18    1
    18    18    19    1
    19    19    20   ar
    20    20    21   ar
    21    21    22   ar
    22    22    23   ar
    23    23    24   ar
    24    24    25   ar
    25    25    26   ar
    26    26    27   ar
    27    27    28   ar
    28    28    29   ar
    29    29    30   ar
    30    30    31   ar
    31    13     8   ar
    32     7     1    1
    33    31    19   ar
    34    30    22   ar
    35    29    24   ar
@<TRIPOS>MOLECULE
*****
 31 35 0 0 0
SMALL
GASTEIGER

@<TRIPOS>ATOM
      1 C          63.3853   93.7040    1.1277 C.3     1  UNL1        0.1074
      2 C          63.9422   92.4543    1.7427 C.3     1  UNL1        0.0694
      3 C          62.8843   91.8604    2.6247 C.3     1  UNL1        0.2385
      4 F          63.0143   90.6044    3.4344 F       1  UNL1       -0.2273
      5 C          61.6735   92.7431    2.5550 C.2     1  UNL1        0.2588
      6 O          60.3802   92.5248    3.2827 O.2     1  UNL1       -0.2719
      7 N          61.9831   93.8825    1.6299 N.am    1  UNL1       -0.2708
      8 C          63.9317   94.4428   -1.3024 C.ar    1  UNL1        0.1392
      9 C          64.6507   95.3540   -2.2526 C.ar    1  UNL1        0.0368
     10 C          65.5422   96.4376   -1.7226 C.ar    1  UNL1        0.0062
     11 C          65.7148   96.6100   -0.2426 C.ar    1  UNL1        0.0368
     12 C          64.9958   95.6988    0.7075 C.ar    1  UNL1        0.1392
     13 C          64.1043   94.6152    0.1777 C.ar    1  UNL1        0.0637
     14 C          62.7601   93.2706   -3.3033 C.3     1  UNL1        0.2525
     15 O          63.0401   93.3591   -1.8323 O.3     1  UNL1       -0.4716
     16 O          65.1684   95.8713    2.1875 O.3     1  UNL1       -0.4716
     17 C          64.3164   96.8559    2.9323 C.3     1  UNL1        0.2525
     18 C          61.0538   95.0036    1.2700 C.3     1  UNL1        0.1205
     19 C          60.6430   95.2081   -0.1582 C.ar    1  UNL1       -0.0021
     20 C          61.0555   96.4528   -0.8864 C.ar    1  UNL1        0.0005
     21 C          60.6447   96.6573   -2.3145 C.ar    1  UNL1        0.0372
     22 C          59.8213   95.6170   -3.0143 C.ar    1  UNL1        0.1453
     23 O          59.2711   95.5426   -4.4078 O.2     1  UNL1       -0.4535
     24 C          58.5185   94.2519   -4.5408 C.ar    1  UNL1        0.1453
     25 C          57.7668   93.6419   -5.6865 C.ar    1  UNL1        0.0375
     26 C          57.1001   92.3085   -5.5209 C.ar    1  UNL1        0.0031
     27 C          57.1852   91.5851   -4.2096 C.ar    1  UNL1        0.0002
     28 C          57.9369   92.1951   -3.0639 C.ar    1  UNL1        0.0031
     29 C          58.6036   93.5285   -3.2295 C.ar    1  UNL1        0.0375
     30 C          59.4088   94.3722   -2.2861 C.ar    1  UNL1        0.0372
     31 C          59.8196   94.1677   -0.8581 C.ar    1  UNL1        0.0005
@<TRIPOS>BOND
     1    14    15    1
     2    15     8    1
     3     8     9   ar
     4     9    10   ar
     5    10    11   ar
     6    11    12   ar
     7    12    16    1
     8    16    17    1
     9    12    13   ar
    10     1    13    1
    11     1     2    1
    12     2     3    1
    13     3     4    1
    14     3     5    1
    15     5     6    2
    16     5     7   am
    17     7    18    1
    18    18    19    1
    19    19    20   ar
    20    20    21   ar
    21    21    22   ar
    22    22    23   ar
    23    23    24   ar
    24    24    25   ar
    25    25    26   ar
    26    26    27   ar
    27    27    28   ar
    28    28    29   ar
    29    29    30   ar
    30    30    31   ar
    31    13     8   ar
    32     7     1    1
    33    31    19   ar
    34    30    22   ar
    35    29    24   ar
@<TRIPOS>MOLECULE
*****
 31 35 0 0 0
SMALL
GASTEIGER

@<TRIPOS>ATOM
      1 C          62.2475   86.7619   11.2494 C.3     1  UNL1        0.1074
      2 C          62.7922   85.5922   12.0144 C.3     1  UNL1        0.0694
      3 C          63.5660   86.1233   13.1844 C.3     1  UNL1        0.2385
      4 F          64.2808   85.3008   14.2153 F       1  UNL1       -0.2273
      5 C          63.4996   87.6212   13.1427 C.2     1  UNL1        0.2588
      6 O          64.1363   88.5597   14.1244 O.2     1  UNL1       -0.2719
      7 N          62.6848   88.0159   11.9468 N.am    1  UNL1       -0.2708
      8 C          60.0537   87.3257    9.9767 C.ar    1  UNL1        0.1392
      9 C          59.2185   87.2540    8.7328 C.ar    1  UNL1        0.0368
     10 C          59.7417   86.5469    7.5179 C.ar    1  UNL1        0.0062
     11 C          61.1002   85.9114    7.5467 C.ar    1  UNL1        0.0368
     12 C          61.9354   85.9831    8.7906 C.ar    1  UNL1        0.1392
     13 C          61.4123   86.6902   10.0056 C.ar    1  UNL1        0.0637
     14 C          59.3475   89.5214   11.1724 C.3     1  UNL1        0.2525
     15 O          59.5306   88.0328   11.1917 O.3     1  UNL1       -0.4716
     16 O          63.2939   85.3477    8.8194 O.3     1  UNL1       -0.4716
     17 C          63.4525   83.9386    9.3086 C.3     1  UNL1        0.2525
     18 C          62.3635   89.4184   11.5227 C.3     1  UNL1        0.1205
     19 C          63.4059   90.4918   11.6299 C.ar    1  UNL1       -0.0021
     20 C          63.7471   91.3281   10.4323 C.ar    1  UNL1        0.0005
     21 C          64.7894   92.4014   10.5395 C.ar    1  UNL1        0.0372
     22 C          65.4905   92.6384   11.8442 C.ar    1  UNL1        0.1453
     23 O          66.5533   93.6163   12.2495 O.2     1  UNL1       -0.4535
     24 C          66.8689   93.3844   13.6975 C.ar    1  UNL1        0.1453
     25 C          67.8342   94.0494   14.6333 C.ar    1  UNL1        0.0375
     26 C          67.9319   93.5930   16.0588 C.ar    1  UNL1        0.0031
     27 C          67.0641   92.4718   16.5485 C.ar    1  UNL1        0.0002
     28 C          66.0988   91.8068   15.6127 C.ar    1  UNL1        0.0031
     29 C          66.0011   92.2631   14.1871 C.ar    1  UNL1        0.0375
     30 C          65.1493   91.8021   13.0418 C.ar    1  UNL1        0.0372
     31 C          64.1070   90.7288   12.9346 C.ar    1  UNL1        0.0005
@<TRIPOS>BOND
     1    14    15    1
     2    15     8    1
     3     8     9   ar
     4     9    10   ar
     5    10    11   ar
     6    11    12   ar
     7    12    16    1
     8    16    17    1
     9    12    13   ar
    10     1    13    1
    11     1     2    1
    12     2     3    1
    13     3     4    1
    14     3     5    1
    15     5     6    2
    16     5     7   am
    17     7    18    1
    18    18    19    1
    19    19    20   ar
    20    20    21   ar
    21    21    22   ar
    22    22    23   ar
    23    23    24   ar
    24    24    25   ar
    25    25    26   ar
    26    26    27   ar
    27    27    28   ar
    28    28    29   ar
    29    29    30   ar
    30    30    31   ar
    31    13     8   ar
    32     7     1    1
    33    31    19   ar
    34    30    22   ar
    35    29    24   ar
