@<TRIPOS>MOLECULE
*****
 37 42 0 0 0
SMALL
GASTEIGER

@<TRIPOS>ATOM
      1 C          63.6132   91.2958   11.6849 C.3     1  UNL1        0.1095
      2 C          63.9288   92.3036   10.6197 C.3     1  UNL1        0.1598
      3 O          65.0943   93.2327   10.7879 O.3     1  UNL1       -0.3508
      4 C          65.9442   93.1540   12.0214 C.3     1  UNL1        0.1598
      5 C          65.6286   92.1463   13.0866 C.3     1  UNL1        0.1091
      6 N          64.4631   91.2172   12.9184 N.3     1  UNL1       -0.1533
      7 C          62.4477   90.3667   11.5167 C.3     1  UNL1        0.0261
      8 C          61.1189   89.7141   11.7586 C.3     1  UNL1        0.0020
      9 C          61.5728   90.8404   12.6393 C.3     1  UNL1        0.0020
     10 C          62.9179   89.5703   10.3357 C.3     1  UNL1        0.0867
     11 O          61.1585   88.6407    8.6652 O.2     1  UNL1       -0.2749
     12 C          62.0895   88.4300    9.8223 C.2     1  UNL1        0.2257
     13 N          62.1921   87.0791   10.4660 N.am    1  UNL1       -0.2794
     14 C          63.1231   86.8684   11.6231 C.3     1  UNL1        0.0948
     15 C          63.2257   85.5174   12.2668 C.3     1  UNL1        0.0375
     16 C          62.3974   84.3771   11.7534 C.3     1  UNL1        0.0609
     17 C          61.4664   84.5877   10.5963 C.3     1  UNL1        0.0375
     18 C          61.3637   85.9388    9.9526 C.3     1  UNL1        0.0948
     19 N          62.5000   83.0261   12.3971 N.3     1  UNL1       -0.2738
     20 C          62.7847   81.8155   11.5584 C.3     1  UNL1        0.0720
     21 C          62.8873   80.4645   12.2021 C.3     1  UNL1        0.0174
     22 C          62.7053   80.3241   13.6842 C.3     1  UNL1        0.0029
     23 C          62.4206   81.5347   14.5230 C.3     1  UNL1        0.0174
     24 C          62.3179   82.8858   13.8793 C.3     1  UNL1        0.0720
     25 C          66.4785   92.0677   14.3201 C.3     1  UNL1        0.0189
     26 C          67.7324   91.6138   15.0069 C.3     1  UNL1        0.0015
     27 C          66.6966   92.3853   15.7698 C.3     1  UNL1        0.0015
     28 S          64.1475   90.2094   13.9837 S.O2    1  UNL1        0.0634
     29 O          64.5809   89.0403   13.4661 O.2     1  UNL1       -0.1528
     30 O          63.5724   91.2968   14.8420 O.2     1  UNL1       -0.1528
     31 C          63.8318   89.2017   15.0490 C.ar    1  UNL1        0.1223
     32 C          64.1786   87.7571   14.8413 C.ar    1  UNL1        0.0222
     33 C          63.8629   86.7494   15.9065 C.ar    1  UNL1        0.0310
     34 C          63.2005   87.1862   17.1795 C.ar    1  UNL1        0.1402
     35 F          62.8848   86.1784   18.2448 F       1  UNL1       -0.2042
     36 C          62.8538   88.6306   17.3872 C.ar    1  UNL1        0.0310
     37 C          63.1694   89.6385   16.3219 C.ar    1  UNL1        0.0222
@<TRIPOS>BOND
     1    11    12    2
     2    12    10    1
     3    10     7    1
     4     1     7    1
     5     1     2    1
     6     2     3    1
     7     3     4    1
     8     4     5    1
     9     5    25    1
    10    25    26    1
    11    26    27    1
    12     5     6    1
    13     6    28    1
    14    28    29    2
    15    28    30    2
    16    28    31    1
    17    31    32   ar
    18    32    33   ar
    19    33    34   ar
    20    34    35    1
    21    34    36   ar
    22    36    37   ar
    23     7     8    1
    24     8     9    1
    25    12    13   am
    26    13    14    1
    27    14    15    1
    28    15    16    1
    29    16    19    1
    30    19    20    1
    31    20    21    1
    32    21    22    1
    33    22    23    1
    34    23    24    1
    35    16    17    1
    36    17    18    1
    37     9     7    1
    38    18    13    1
    39     6     1    1
    40    37    31   ar
    41    24    19    1
    42    27    25    1
@<TRIPOS>MOLECULE
*****
 37 42 0 0 0
SMALL
GASTEIGER

@<TRIPOS>ATOM
      1 C          60.5533   88.5803   10.0282 C.3     1  UNL1        0.1095
      2 C          59.7883   89.5939    9.2298 C.3     1  UNL1        0.1598
      3 O          59.4693   89.3277    7.7886 O.3     1  UNL1       -0.3508
      4 C          59.9151   88.0478    7.1457 C.3     1  UNL1        0.1598
      5 C          60.6801   87.0342    7.9441 C.3     1  UNL1        0.1091
      6 N          60.9991   87.3005    9.3854 N.3     1  UNL1       -0.1533
      7 C          60.8723   88.8465   11.4696 C.3     1  UNL1        0.0261
      8 C          60.6763   89.1898   12.9165 C.3     1  UNL1        0.0020
      9 C          59.4997   89.1610   11.9865 C.3     1  UNL1        0.0020
     10 C          62.3557   88.6245   11.4532 C.3     1  UNL1        0.0867
     11 O          63.4166   88.8830   13.8107 O.2     1  UNL1       -0.2749
     12 C          63.2372   89.3767   12.4056 C.2     1  UNL1        0.2257
     13 N          63.9393   90.6226   11.9531 N.am    1  UNL1       -0.2794
     14 C          63.7599   91.1163   10.5481 C.3     1  UNL1        0.0948
     15 C          64.4621   92.3622   10.0956 C.3     1  UNL1        0.0375
     16 C          65.3435   93.1144   11.0480 C.3     1  UNL1        0.0609
     17 C          65.5229   92.6208   12.4530 C.3     1  UNL1        0.0375
     18 C          64.8208   91.3748   12.9056 C.3     1  UNL1        0.0948
     19 N          66.0456   94.3603   10.5954 N.3     1  UNL1       -0.2738
     20 C          66.8128   94.3627    9.3065 C.3     1  UNL1        0.0720
     21 C          67.5150   95.6086    8.8540 C.3     1  UNL1        0.0174
     22 C          67.4499   96.8520    9.6903 C.3     1  UNL1        0.0029
     23 C          66.6827   96.8497   10.9793 C.3     1  UNL1        0.0174
     24 C          65.9805   95.6037   11.4318 C.3     1  UNL1        0.0720
     25 C          61.1259   85.7544    7.3013 C.3     1  UNL1        0.0189
     26 C          60.7962   84.4569    6.6248 C.3     1  UNL1        0.0015
     27 C          62.2278   84.8353    6.8644 C.3     1  UNL1        0.0015
     28 S          61.7641   86.2869   10.1839 S.O2    1  UNL1        0.0634
     29 O          60.8326   85.7369   10.9917 O.2     1  UNL1       -0.1528
     30 O          63.0213   86.6639    9.4579 O.2     1  UNL1       -0.1528
     31 C          62.5290   85.2733   10.9823 C.ar    1  UNL1        0.1223
     32 C          62.5474   85.3569   12.4799 C.ar    1  UNL1        0.0222
     33 C          63.3123   84.3434   13.2783 C.ar    1  UNL1        0.0310
     34 C          64.0589   83.2462   12.5792 C.ar    1  UNL1        0.1402
     35 F          64.8239   82.2326   13.3777 F       1  UNL1       -0.2042
     36 C          64.0405   83.1625   11.0817 C.ar    1  UNL1        0.0310
     37 C          63.2756   84.1761   10.2832 C.ar    1  UNL1        0.0222
@<TRIPOS>BOND
     1    11    12    2
     2    12    10    1
     3    10     7    1
     4     1     7    1
     5     1     2    1
     6     2     3    1
     7     3     4    1
     8     4     5    1
     9     5    25    1
    10    25    26    1
    11    26    27    1
    12     5     6    1
    13     6    28    1
    14    28    29    2
    15    28    30    2
    16    28    31    1
    17    31    32   ar
    18    32    33   ar
    19    33    34   ar
    20    34    35    1
    21    34    36   ar
    22    36    37   ar
    23     7     8    1
    24     8     9    1
    25    12    13   am
    26    13    14    1
    27    14    15    1
    28    15    16    1
    29    16    19    1
    30    19    20    1
    31    20    21    1
    32    21    22    1
    33    22    23    1
    34    23    24    1
    35    16    17    1
    36    17    18    1
    37     9     7    1
    38    18    13    1
    39     6     1    1
    40    37    31   ar
    41    24    19    1
    42    27    25    1
@<TRIPOS>MOLECULE
*****
 37 42 0 0 0
SMALL
GASTEIGER

@<TRIPOS>ATOM
      1 C          60.3793   88.7152    9.7213 C.3     1  UNL1        0.1095
      2 C          59.5670   89.6558    8.8814 C.3     1  UNL1        0.1598
      3 O          59.2188   89.2899    7.4690 O.3     1  UNL1       -0.3508
      4 C          59.6828   87.9834    6.8966 C.3     1  UNL1        0.1598
      5 C          60.4951   87.0428    7.7365 C.3     1  UNL1        0.1091
      6 N          60.8433   87.4087    9.1488 N.3     1  UNL1       -0.1533
      7 C          60.7276   89.0811   11.1337 C.3     1  UNL1        0.0261
      8 C          60.5564   89.4329   12.5818 C.3     1  UNL1        0.0020
      9 C          59.3526   89.1675   11.7271 C.3     1  UNL1        0.0020
     10 C          62.2235   89.1218   11.0308 C.3     1  UNL1        0.0867
     11 O          62.5849   91.1930    9.5045 O.2     1  UNL1       -0.2749
     12 C          62.9205   90.4189   10.7447 C.2     1  UNL1        0.2257
     13 N          63.9531   90.9418   11.6987 N.am    1  UNL1       -0.2794
     14 C          64.2887   90.1677   12.9389 C.3     1  UNL1        0.0948
     15 C          65.3214   90.6906   13.8930 C.3     1  UNL1        0.0375
     16 C          66.0184   91.9876   13.6069 C.3     1  UNL1        0.0609
     17 C          65.6829   92.7617   12.3668 C.3     1  UNL1        0.0375
     18 C          64.6502   92.2388   11.4126 C.3     1  UNL1        0.0948
     19 N          67.0511   92.5105   14.5610 N.3     1  UNL1       -0.2738
     20 C          67.3183   93.9842   14.6430 C.3     1  UNL1        0.0720
     21 C          68.3510   94.5072   15.5970 C.3     1  UNL1        0.0174
     22 C          69.1163   93.5565   16.4690 C.3     1  UNL1        0.0029
     23 C          68.8490   92.0827   16.3870 C.3     1  UNL1        0.0174
     24 C          67.8164   91.5598   15.4329 C.3     1  UNL1        0.0720
     25 C          60.9591   85.7363    7.1641 C.3     1  UNL1        0.0189
     26 C          62.0727   84.8362    6.7171 C.3     1  UNL1        0.0015
     27 C          60.6492   84.3734    6.6195 C.3     1  UNL1        0.0015
     28 S          61.6556   86.4681    9.9888 S.O2    1  UNL1        0.0634
     29 O          60.7622   85.9544   10.8608 O.2     1  UNL1       -0.1528
     30 O          62.8812   86.8219    9.1997 O.2     1  UNL1       -0.1528
     31 C          62.4679   85.5276   10.8288 C.ar    1  UNL1        0.1223
     32 C          63.1580   84.3581   10.1913 C.ar    1  UNL1        0.0222
     33 C          63.9703   83.4176   11.0312 C.ar    1  UNL1        0.0310
     34 C          64.0926   83.6464   12.5086 C.ar    1  UNL1        0.1402
     35 F          64.9049   82.7059   13.3485 F       1  UNL1       -0.2042
     36 C          63.4026   84.8158   13.1461 C.ar    1  UNL1        0.0310
     37 C          62.5902   85.7564   12.3061 C.ar    1  UNL1        0.0222
@<TRIPOS>BOND
     1    11    12    2
     2    12    10    1
     3    10     7    1
     4     1     7    1
     5     1     2    1
     6     2     3    1
     7     3     4    1
     8     4     5    1
     9     5    25    1
    10    25    26    1
    11    26    27    1
    12     5     6    1
    13     6    28    1
    14    28    29    2
    15    28    30    2
    16    28    31    1
    17    31    32   ar
    18    32    33   ar
    19    33    34   ar
    20    34    35    1
    21    34    36   ar
    22    36    37   ar
    23     7     8    1
    24     8     9    1
    25    12    13   am
    26    13    14    1
    27    14    15    1
    28    15    16    1
    29    16    19    1
    30    19    20    1
    31    20    21    1
    32    21    22    1
    33    22    23    1
    34    23    24    1
    35    16    17    1
    36    17    18    1
    37     9     7    1
    38    18    13    1
    39     6     1    1
    40    37    31   ar
    41    24    19    1
    42    27    25    1
@<TRIPOS>MOLECULE
*****
 37 42 0 0 0
SMALL
GASTEIGER

@<TRIPOS>ATOM
      1 C          63.5046   90.2168   13.7862 C.3     1  UNL1        0.1095
      2 C          62.3527   89.6273   13.0274 C.3     1  UNL1        0.1598
      3 O          62.1794   89.9344   11.5694 O.3     1  UNL1       -0.3508
      4 C          63.1579   90.8308   10.8703 C.3     1  UNL1        0.1598
      5 C          64.3098   91.4203   11.6291 C.3     1  UNL1        0.1091
      6 N          64.4831   91.1133   13.0870 N.3     1  UNL1       -0.1533
      7 C          63.6779   89.9098   15.2442 C.3     1  UNL1        0.0261
      8 C          63.6468   90.0808   16.7341 C.3     1  UNL1        0.0020
      9 C          63.1493   91.1797   15.8425 C.3     1  UNL1        0.0020
     10 C          64.2667   88.5332   15.1522 C.3     1  UNL1        0.0867
     11 O          63.1163   87.5572   17.2674 O.2     1  UNL1       -0.2749
     12 C          63.6078   87.3868   15.8605 C.2     1  UNL1        0.2257
     13 N          63.4404   86.0701   15.1619 N.am    1  UNL1       -0.2794
     14 C          63.9319   85.8997   13.7550 C.3     1  UNL1        0.0948
     15 C          63.7645   84.5829   13.0563 C.3     1  UNL1        0.0375
     16 C          63.1057   83.4365   13.7645 C.3     1  UNL1        0.0609
     17 C          62.6141   83.6069   15.1714 C.3     1  UNL1        0.0375
     18 C          62.7815   84.9237   15.8701 C.3     1  UNL1        0.0948
     19 N          62.9382   82.1197   13.0659 N.3     1  UNL1       -0.2738
     20 C          62.4963   80.9120   13.8380 C.3     1  UNL1        0.0720
     21 C          62.3289   79.5952   13.1394 C.3     1  UNL1        0.0174
     22 C          62.6034   79.4861   11.6689 C.3     1  UNL1        0.0029
     23 C          63.0454   80.6939   10.8967 C.3     1  UNL1        0.0174
     24 C          63.2128   82.0107   11.5953 C.3     1  UNL1        0.0720
     25 C          65.2883   92.3168   10.9299 C.3     1  UNL1        0.0189
     26 C          66.6849   92.6014   10.4626 C.3     1  UNL1        0.0015
     27 C          65.5865   93.5848   10.1862 C.3     1  UNL1        0.0015
     28 S          65.6350   91.7027   13.8459 S.O2    1  UNL1        0.0634
     29 O          66.3618   90.6291   14.2221 O.2     1  UNL1       -0.1528
     30 O          65.0898   93.0790   13.6042 O.2     1  UNL1       -0.1528
     31 C          66.7868   92.2922   14.6047 C.ar    1  UNL1        0.1223
     32 C          67.0209   93.7736   14.5810 C.ar    1  UNL1        0.0222
     33 C          68.1727   94.3631   15.3398 C.ar    1  UNL1        0.0310
     34 C          69.0904   93.4712   16.1223 C.ar    1  UNL1        0.1402
     35 F          70.2422   94.0606   16.8811 F       1  UNL1       -0.2042
     36 C          68.8563   91.9898   16.1460 C.ar    1  UNL1        0.0310
     37 C          67.7044   91.4002   15.3872 C.ar    1  UNL1        0.0222
@<TRIPOS>BOND
     1    11    12    2
     2    12    10    1
     3    10     7    1
     4     1     7    1
     5     1     2    1
     6     2     3    1
     7     3     4    1
     8     4     5    1
     9     5    25    1
    10    25    26    1
    11    26    27    1
    12     5     6    1
    13     6    28    1
    14    28    29    2
    15    28    30    2
    16    28    31    1
    17    31    32   ar
    18    32    33   ar
    19    33    34   ar
    20    34    35    1
    21    34    36   ar
    22    36    37   ar
    23     7     8    1
    24     8     9    1
    25    12    13   am
    26    13    14    1
    27    14    15    1
    28    15    16    1
    29    16    19    1
    30    19    20    1
    31    20    21    1
    32    21    22    1
    33    22    23    1
    34    23    24    1
    35    16    17    1
    36    17    18    1
    37     9     7    1
    38    18    13    1
    39     6     1    1
    40    37    31   ar
    41    24    19    1
    42    27    25    1
@<TRIPOS>MOLECULE
*****
 37 42 0 0 0
SMALL
GASTEIGER

@<TRIPOS>ATOM
      1 C          64.5830   90.7110   15.1028 C.3     1  UNL1        0.1095
      2 C          65.6149   91.3560   15.9797 C.3     1  UNL1        0.1598
      3 O          66.6190   92.2996   15.3870 O.3     1  UNL1       -0.3508
      4 C          66.5911   92.5982   13.9173 C.3     1  UNL1        0.1598
      5 C          65.5592   91.9533   13.0403 C.3     1  UNL1        0.1091
      6 N          64.5551   91.0097   13.6331 N.3     1  UNL1       -0.1533
      7 C          63.5788   89.7674   15.6955 C.3     1  UNL1        0.0261
      8 C          62.3611   89.2794   16.4229 C.3     1  UNL1        0.0020
      9 C          62.6151   90.7517   16.2892 C.3     1  UNL1        0.0020
     10 C          64.1939   88.4554   15.3077 C.3     1  UNL1        0.0867
     11 O          63.4327   87.1739   17.4357 O.2     1  UNL1       -0.2749
     12 C          63.7354   87.1883   15.9666 C.2     1  UNL1        0.2257
     13 N          63.5797   85.9355   15.1565 N.am    1  UNL1       -0.2794
     14 C          63.8824   85.9498   13.6875 C.3     1  UNL1        0.0948
     15 C          63.7266   84.6970   12.8774 C.3     1  UNL1        0.0375
     16 C          63.2682   83.4300   13.5362 C.3     1  UNL1        0.0609
     17 C          62.9654   83.4155   15.0053 C.3     1  UNL1        0.0375
     18 C          63.1212   84.6684   15.8155 C.3     1  UNL1        0.0948
     19 N          63.1124   82.1771   12.7261 N.3     1  UNL1       -0.2738
     20 C          63.4645   82.1783   11.2681 C.3     1  UNL1        0.0720
     21 C          63.3088   80.9255   10.4580 C.3     1  UNL1        0.0174
     22 C          62.8010   79.6717   11.1059 C.3     1  UNL1        0.0029
     23 C          62.4488   79.6705   12.5640 C.3     1  UNL1        0.0174
     24 C          62.6046   80.9233   13.3741 C.3     1  UNL1        0.0720
     25 C          65.5314   92.2519   11.5706 C.3     1  UNL1        0.0189
     26 C          64.7847   92.3113   10.2710 C.3     1  UNL1        0.0015
     27 C          66.2298   92.7098   10.3246 C.3     1  UNL1        0.0015
     28 S          63.5231   90.3646   12.7561 S.O2    1  UNL1        0.0634
     29 O          64.0387   89.1464   12.4867 O.2     1  UNL1       -0.1528
     30 O          62.6754   91.5988   12.8460 O.2     1  UNL1       -0.1528
     31 C          62.4912   89.7197   11.8792 C.ar    1  UNL1        0.1223
     32 C          61.3515   90.5323   11.3397 C.ar    1  UNL1        0.0222
     33 C          60.3196   89.8874   10.4628 C.ar    1  UNL1        0.0310
     34 C          60.4272   88.4298   10.1253 C.ar    1  UNL1        0.1402
     35 F          59.3952   87.7848    9.2484 F       1  UNL1       -0.2042
     36 C          61.5667   87.6172   10.6647 C.ar    1  UNL1        0.0310
     37 C          62.5988   88.2621   11.5416 C.ar    1  UNL1        0.0222
@<TRIPOS>BOND
     1    11    12    2
     2    12    10    1
     3    10     7    1
     4     1     7    1
     5     1     2    1
     6     2     3    1
     7     3     4    1
     8     4     5    1
     9     5    25    1
    10    25    26    1
    11    26    27    1
    12     5     6    1
    13     6    28    1
    14    28    29    2
    15    28    30    2
    16    28    31    1
    17    31    32   ar
    18    32    33   ar
    19    33    34   ar
    20    34    35    1
    21    34    36   ar
    22    36    37   ar
    23     7     8    1
    24     8     9    1
    25    12    13   am
    26    13    14    1
    27    14    15    1
    28    15    16    1
    29    16    19    1
    30    19    20    1
    31    20    21    1
    32    21    22    1
    33    22    23    1
    34    23    24    1
    35    16    17    1
    36    17    18    1
    37     9     7    1
    38    18    13    1
    39     6     1    1
    40    37    31   ar
    41    24    19    1
    42    27    25    1
@<TRIPOS>MOLECULE
*****
 37 42 0 0 0
SMALL
GASTEIGER

@<TRIPOS>ATOM
      1 C          63.9586   90.9921   13.8337 C.3     1  UNL1        0.1095
      2 C          63.2592   90.5065   15.0686 C.3     1  UNL1        0.1598
      3 O          63.7751   90.8919   16.4233 O.3     1  UNL1       -0.3508
      4 C          64.9904   91.7630   16.5431 C.3     1  UNL1        0.1598
      5 C          65.6898   92.2485   15.3082 C.3     1  UNL1        0.1091
      6 N          65.1739   91.8631   13.9535 N.3     1  UNL1       -0.1533
      7 C          63.4427   90.6066   12.4790 C.3     1  UNL1        0.0261
      8 C          62.8577   90.7371   11.1039 C.3     1  UNL1        0.0020
      9 C          63.0647   91.9584   11.9499 C.3     1  UNL1        0.0020
     10 C          63.6415   89.1210   12.5376 C.3     1  UNL1        0.0867
     11 O          62.3265   88.8106   10.3185 O.2     1  UNL1       -0.2749
     12 C          62.9297   88.2301   11.5631 C.2     1  UNL1        0.2257
     13 N          62.8211   86.7586   11.8333 N.am    1  UNL1       -0.2794
     14 C          63.4242   86.1781   13.0779 C.3     1  UNL1        0.0948
     15 C          63.3156   84.7066   13.3480 C.3     1  UNL1        0.0375
     16 C          62.6039   83.8157   12.3736 C.3     1  UNL1        0.0609
     17 C          62.0007   84.3961   11.1290 C.3     1  UNL1        0.0375
     18 C          62.1093   85.8677   10.8588 C.3     1  UNL1        0.0948
     19 N          62.4953   82.3442   12.6438 N.3     1  UNL1       -0.2738
     20 C          62.9523   81.3565   11.6115 C.3     1  UNL1        0.0720
     21 C          62.8437   79.8850   11.8816 C.3     1  UNL1        0.0174
     22 C          62.2781   79.4012   13.1839 C.3     1  UNL1        0.0029
     23 C          61.8211   80.3889   14.2162 C.3     1  UNL1        0.0174
     24 C          61.9297   81.8605   13.9461 C.3     1  UNL1        0.0720
     25 C          66.9051   93.1196   15.4279 C.3     1  UNL1        0.0189
     26 C          67.7178   94.2878   14.9540 C.3     1  UNL1        0.0015
     27 C          68.1973   93.4599   16.1093 C.3     1  UNL1        0.0015
     28 S          65.8733   92.3487   12.7185 S.O2    1  UNL1        0.0634
     29 O          65.2215   93.4874   12.4004 O.2     1  UNL1       -0.1528
     30 O          66.7939   91.1658   12.7748 O.2     1  UNL1       -0.1528
     31 C          66.5726   92.8342   11.4836 C.ar    1  UNL1        0.1223
     32 C          67.6726   92.0164   10.8740 C.ar    1  UNL1        0.0222
     33 C          68.3719   92.5020    9.6390 C.ar    1  UNL1        0.0310
     34 C          67.9714   93.8052    9.0136 C.ar    1  UNL1        0.1402
     35 F          68.6708   94.2907    7.7787 F       1  UNL1       -0.2042
     36 C          66.8716   94.6229    9.6231 C.ar    1  UNL1        0.0310
     37 C          66.1721   94.1374   10.8581 C.ar    1  UNL1        0.0222
@<TRIPOS>BOND
     1    11    12    2
     2    12    10    1
     3    10     7    1
     4     1     7    1
     5     1     2    1
     6     2     3    1
     7     3     4    1
     8     4     5    1
     9     5    25    1
    10    25    26    1
    11    26    27    1
    12     5     6    1
    13     6    28    1
    14    28    29    2
    15    28    30    2
    16    28    31    1
    17    31    32   ar
    18    32    33   ar
    19    33    34   ar
    20    34    35    1
    21    34    36   ar
    22    36    37   ar
    23     7     8    1
    24     8     9    1
    25    12    13   am
    26    13    14    1
    27    14    15    1
    28    15    16    1
    29    16    19    1
    30    19    20    1
    31    20    21    1
    32    21    22    1
    33    22    23    1
    34    23    24    1
    35    16    17    1
    36    17    18    1
    37     9     7    1
    38    18    13    1
    39     6     1    1
    40    37    31   ar
    41    24    19    1
    42    27    25    1
@<TRIPOS>MOLECULE
*****
 37 42 0 0 0
SMALL
GASTEIGER

@<TRIPOS>ATOM
      1 C          60.1631   88.5028    9.9582 C.3     1  UNL1        0.1095
      2 C          59.3147   88.8057    8.7588 C.3     1  UNL1        0.1598
      3 O          59.4937   88.0175    7.4953 O.3     1  UNL1       -0.3508
      4 C          60.5210   86.9263    7.4311 C.3     1  UNL1        0.1598
      5 C          61.3693   86.6235    8.6304 C.3     1  UNL1        0.1091
      6 N          61.1904   87.4117    9.8940 N.3     1  UNL1       -0.1533
      7 C          59.9841   89.2910   11.2219 C.3     1  UNL1        0.0261
      8 C          59.6553   89.6085   12.6505 C.3     1  UNL1        0.0020
      9 C          59.4903   88.2091   12.1360 C.3     1  UNL1        0.0020
     10 C          60.4158   90.6466   10.7465 C.3     1  UNL1        0.0867
     11 O          62.0774   90.7559    8.7522 O.2     1  UNL1       -0.2749
     12 C          61.8073   90.8503   10.2246 C.2     1  UNL1        0.2257
     13 N          62.9286   91.1485   11.1752 N.am    1  UNL1       -0.2794
     14 C          62.6585   91.2430   12.6477 C.3     1  UNL1        0.0948
     15 C          63.7799   91.5412   13.5983 C.3     1  UNL1        0.0375
     16 C          65.1713   91.7449   13.0765 C.3     1  UNL1        0.0609
     17 C          65.4415   91.6505   11.6041 C.3     1  UNL1        0.0375
     18 C          64.3201   91.3523   10.6534 C.3     1  UNL1        0.0948
     19 N          66.2927   92.0431   14.0271 N.3     1  UNL1       -0.2738
     20 C          65.9906   92.5030   15.4225 C.3     1  UNL1        0.0720
     21 C          67.1120   92.8012   16.3731 C.3     1  UNL1        0.0174
     22 C          68.5353   92.6396   15.9283 C.3     1  UNL1        0.0029
     23 C          68.8374   92.1797   14.5328 C.3     1  UNL1        0.0174
     24 C          67.7160   91.8815   13.5822 C.3     1  UNL1        0.0720
     25 C          62.3967   85.5324    8.5663 C.3     1  UNL1        0.0189
     26 C          63.1947   84.4580    9.2437 C.3     1  UNL1        0.0015
     27 C          63.3780   84.7169    7.7776 C.3     1  UNL1        0.0015
     28 S          62.0387   87.1088   11.0935 S.O2    1  UNL1        0.0634
     29 O          62.9909   88.0656   11.0701 O.2     1  UNL1       -0.1528
     30 O          61.1600   85.9377   11.4192 O.2     1  UNL1       -0.1528
     31 C          62.8870   86.8059   12.2929 C.ar    1  UNL1        0.1223
     32 C          63.5020   87.9259   13.0788 C.ar    1  UNL1        0.0222
     33 C          64.3503   87.6230   14.2782 C.ar    1  UNL1        0.0310
     34 C          64.5837   86.2002   14.6917 C.ar    1  UNL1        0.1402
     35 F          65.4320   85.8973   15.8911 F       1  UNL1       -0.2042
     36 C          63.9688   85.0802   13.9059 C.ar    1  UNL1        0.0310
     37 C          63.1204   85.3831   12.7064 C.ar    1  UNL1        0.0222
@<TRIPOS>BOND
     1    11    12    2
     2    12    10    1
     3    10     7    1
     4     1     7    1
     5     1     2    1
     6     2     3    1
     7     3     4    1
     8     4     5    1
     9     5    25    1
    10    25    26    1
    11    26    27    1
    12     5     6    1
    13     6    28    1
    14    28    29    2
    15    28    30    2
    16    28    31    1
    17    31    32   ar
    18    32    33   ar
    19    33    34   ar
    20    34    35    1
    21    34    36   ar
    22    36    37   ar
    23     7     8    1
    24     8     9    1
    25    12    13   am
    26    13    14    1
    27    14    15    1
    28    15    16    1
    29    16    19    1
    30    19    20    1
    31    20    21    1
    32    21    22    1
    33    22    23    1
    34    23    24    1
    35    16    17    1
    36    17    18    1
    37     9     7    1
    38    18    13    1
    39     6     1    1
    40    37    31   ar
    41    24    19    1
    42    27    25    1
@<TRIPOS>MOLECULE
*****
 37 42 0 0 0
SMALL
GASTEIGER

@<TRIPOS>ATOM
      1 C          62.4785   93.7530    0.4870 C.3     1  UNL1        0.1095
      2 C          63.2085   93.7622    1.7973 C.3     1  UNL1        0.1598
      3 O          64.5048   94.5055    1.9284 O.3     1  UNL1       -0.3508
      4 C          65.0710   95.2395    0.7492 C.3     1  UNL1        0.1598
      5 C          64.3410   95.2304   -0.5611 C.3     1  UNL1        0.1091
      6 N          63.0448   94.4871   -0.6922 N.3     1  UNL1       -0.1533
      7 C          61.1822   93.0097    0.3558 C.3     1  UNL1        0.0261
      8 C          60.1923   91.9668   -0.0714 C.3     1  UNL1        0.0020
      9 C          61.6144   91.8887   -0.5423 C.3     1  UNL1        0.0020
     10 C          60.2999   93.8726    1.2083 C.3     1  UNL1        0.0867
     11 O          60.6818   96.4389    1.0733 O.2     1  UNL1       -0.2749
     12 C          59.8748   95.2253    0.7187 C.2     1  UNL1        0.2257
     13 N          58.6427   95.3643   -0.1254 N.am    1  UNL1       -0.2794
     14 C          57.8357   94.1506   -0.4800 C.3     1  UNL1        0.0948
     15 C          56.6035   94.2897   -1.3242 C.3     1  UNL1        0.0375
     16 C          56.1785   95.6422   -1.8137 C.3     1  UNL1        0.0609
     17 C          56.9854   96.8559   -1.4592 C.3     1  UNL1        0.0375
     18 C          58.2176   96.7169   -0.6150 C.3     1  UNL1        0.0948
     19 N          54.9463   95.7812   -2.6579 N.3     1  UNL1       -0.2738
     20 C          53.5966   95.8567   -2.0080 C.3     1  UNL1        0.0720
     21 C          52.3645   95.9957   -2.8521 C.3     1  UNL1        0.0174
     22 C          52.4821   96.0593   -4.3461 C.3     1  UNL1        0.0029
     23 C          53.8319   95.9839   -4.9961 C.3     1  UNL1        0.0174
     24 C          55.0640   95.8448   -4.1519 C.3     1  UNL1        0.0720
     25 C          64.9072   95.9645   -1.7403 C.3     1  UNL1        0.0189
     26 C          64.7940   96.4153   -3.1664 C.3     1  UNL1        0.0015
     27 C          66.0012   96.7851   -2.3565 C.3     1  UNL1        0.0015
     28 S          62.3147   94.4779   -2.0026 S.O2    1  UNL1        0.0634
     29 O          61.4509   95.5106   -1.9025 O.2     1  UNL1       -0.1528
     30 O          63.1217   93.2931   -2.4439 O.2     1  UNL1       -0.1528
     31 C          61.5847   94.4686   -3.3129 C.ar    1  UNL1        0.1223
     32 C          62.3500   94.5753   -4.5986 C.ar    1  UNL1        0.0222
     33 C          61.6199   94.5660   -5.9089 C.ar    1  UNL1        0.0310
     34 C          60.1246   94.4501   -5.9336 C.ar    1  UNL1        0.1402
     35 F          59.3946   94.4409   -7.2439 F       1  UNL1       -0.2042
     36 C          59.3593   94.3435   -4.6480 C.ar    1  UNL1        0.0310
     37 C          60.0893   94.3528   -3.3376 C.ar    1  UNL1        0.0222
@<TRIPOS>BOND
     1    11    12    2
     2    12    10    1
     3    10     7    1
     4     1     7    1
     5     1     2    1
     6     2     3    1
     7     3     4    1
     8     4     5    1
     9     5    25    1
    10    25    26    1
    11    26    27    1
    12     5     6    1
    13     6    28    1
    14    28    29    2
    15    28    30    2
    16    28    31    1
    17    31    32   ar
    18    32    33   ar
    19    33    34   ar
    20    34    35    1
    21    34    36   ar
    22    36    37   ar
    23     7     8    1
    24     8     9    1
    25    12    13   am
    26    13    14    1
    27    14    15    1
    28    15    16    1
    29    16    19    1
    30    19    20    1
    31    20    21    1
    32    21    22    1
    33    22    23    1
    34    23    24    1
    35    16    17    1
    36    17    18    1
    37     9     7    1
    38    18    13    1
    39     6     1    1
    40    37    31   ar
    41    24    19    1
    42    27    25    1
@<TRIPOS>MOLECULE
*****
 37 42 0 0 0
SMALL
GASTEIGER

@<TRIPOS>ATOM
      1 C          62.5647   94.7673    0.7186 C.3     1  UNL1        0.1095
      2 C          63.8973   95.1520    1.2896 C.3     1  UNL1        0.1598
      3 O          65.1368   95.0209    0.4552 O.3     1  UNL1       -0.3508
      4 C          65.0437   94.5051   -0.9503 C.3     1  UNL1        0.1598
      5 C          63.7111   94.1204   -1.5213 C.3     1  UNL1        0.1091
      6 N          62.4716   94.2515   -0.6868 N.3     1  UNL1       -0.1533
      7 C          61.3250   94.8984    1.5531 C.3     1  UNL1        0.0261
      8 C          60.1371   95.5215    2.2243 C.3     1  UNL1        0.0020
      9 C          61.0432   96.3607    1.3729 C.3     1  UNL1        0.0020
     10 C          61.1765   93.4817    2.0230 C.3     1  UNL1        0.0867
     11 O          58.5800   93.4615    1.9328 O.2     1  UNL1       -0.2749
     12 C          59.8614   93.0054    2.5652 C.2     1  UNL1        0.2257
     13 N          59.8279   92.0731    3.7397 N.am    1  UNL1       -0.2794
     14 C          61.1093   91.6170    4.3721 C.3     1  UNL1        0.0948
     15 C          61.0757   90.6846    5.5467 C.3     1  UNL1        0.0375
     16 C          59.7608   90.2083    6.0888 C.3     1  UNL1        0.0609
     17 C          58.4793   90.6644    5.4565 C.3     1  UNL1        0.0375
     18 C          58.5129   91.5968    4.2819 C.3     1  UNL1        0.0948
     19 N          59.7272   89.2759    7.2634 N.3     1  UNL1       -0.2738
     20 C          60.1963   89.7466    8.6081 C.3     1  UNL1        0.0720
     21 C          60.1627   88.8141    9.7827 C.3     1  UNL1        0.0174
     22 C          59.6600   87.4113    9.6125 C.3     1  UNL1        0.0029
     23 C          59.1909   86.9406    8.2677 C.3     1  UNL1        0.0174
     24 C          59.2245   87.8730    7.0931 C.3     1  UNL1        0.0720
     25 C          63.6180   93.6046   -2.9267 C.3     1  UNL1        0.0189
     26 C          63.1672   93.7778   -4.3468 C.3     1  UNL1        0.0015
     27 C          63.9075   92.5380   -3.9408 C.3     1  UNL1        0.0015
     28 S          61.1388   93.8668   -1.2578 S.O2    1  UNL1        0.0634
     29 O          61.0146   92.5594   -0.9451 O.2     1  UNL1       -0.1528
     30 O          60.9488   95.2680   -1.7582 O.2     1  UNL1       -0.1528
     31 C          59.8062   93.4822   -1.8288 C.ar    1  UNL1        0.1223
     32 C          58.7497   92.8970   -0.9391 C.ar    1  UNL1        0.0222
     33 C          57.4170   92.5124   -1.5100 C.ar    1  UNL1        0.0310
     34 C          57.1408   92.7129   -2.9707 C.ar    1  UNL1        0.1402
     35 F          55.8081   92.3282   -3.5417 F       1  UNL1       -0.2042
     36 C          58.1972   93.2980   -3.8604 C.ar    1  UNL1        0.0310
     37 C          59.5299   93.6827   -3.2894 C.ar    1  UNL1        0.0222
@<TRIPOS>BOND
     1    11    12    2
     2    12    10    1
     3    10     7    1
     4     1     7    1
     5     1     2    1
     6     2     3    1
     7     3     4    1
     8     4     5    1
     9     5    25    1
    10    25    26    1
    11    26    27    1
    12     5     6    1
    13     6    28    1
    14    28    29    2
    15    28    30    2
    16    28    31    1
    17    31    32   ar
    18    32    33   ar
    19    33    34   ar
    20    34    35    1
    21    34    36   ar
    22    36    37   ar
    23     7     8    1
    24     8     9    1
    25    12    13   am
    26    13    14    1
    27    14    15    1
    28    15    16    1
    29    16    19    1
    30    19    20    1
    31    20    21    1
    32    21    22    1
    33    22    23    1
    34    23    24    1
    35    16    17    1
    36    17    18    1
    37     9     7    1
    38    18    13    1
    39     6     1    1
    40    37    31   ar
    41    24    19    1
    42    27    25    1
