@<TRIPOS>MOLECULE
*****
 47 52 0 0 0
SMALL
GASTEIGER

@<TRIPOS>ATOM
      1 C          59.9529   89.3695    7.3245 C.ar    1  UNL1        0.0516
      2 C          60.4085   90.3540    8.3604 C.ar    1  UNL1        0.0148
      3 C          61.1248   89.8738    9.5877 C.ar    1  UNL1        0.0043
      4 C          61.3853   88.4091    9.7791 C.ar    1  UNL1        0.0361
      5 C          60.9297   87.4246    8.7432 C.ar    1  UNL1        0.0043
      6 C          60.2134   87.9048    7.5159 C.ar    1  UNL1        0.0148
      7 N          59.1927   91.2941    3.9380 N.am    1  UNL1       -0.2681
      8 C          59.9090   90.8139    5.1653 C.2     1  UNL1        0.3082
      9 O          61.2977   91.2978    5.4608 O.2     1  UNL1       -0.2522
     10 N          59.2366   89.8497    6.0971 N.am    1  UNL1       -0.2681
     11 H          58.2813   90.9764    3.7441 H       1  UNL1        0.1564
     12 H          58.3251   89.5321    5.9031 H       1  UNL1        0.1564
     13 C          61.2100   94.1865    1.1425 C.ar    1  UNL1        0.0537
     14 C          62.0288   93.3809    2.1072 C.ar    1  UNL1        0.0058
     15 C          61.3564   92.4168    3.0390 C.ar    1  UNL1        0.0149
     16 C          59.8652   92.2582    3.0062 C.ar    1  UNL1        0.0516
     17 C          59.0464   93.0638    2.0415 C.ar    1  UNL1        0.0149
     18 C          59.7188   94.0279    1.1096 C.ar    1  UNL1        0.0058
     19 C          63.3911   93.7362   -3.7860 C.3     1  UNL1        0.0610
     20 C          63.5607   95.1718   -3.3856 C.3     1  UNL1        0.0375
     21 C          63.0578   95.6432   -2.0533 C.3     1  UNL1        0.0951
     22 N          62.3853   94.6791   -1.1215 N.am    1  UNL1       -0.2760
     23 C          61.8825   95.1506    0.2107 C.2     1  UNL1        0.2490
     24 O          62.0520   96.5861    0.6111 O.2     1  UNL1       -0.2699
     25 C          62.2158   93.2436   -1.5220 C.3     1  UNL1        0.0951
     26 C          62.7187   92.7721   -2.8542 C.3     1  UNL1        0.0375
     27 C          65.1012   92.3777   -5.1931 C.3     1  UNL1        0.0896
     28 N          63.8940   93.2648   -5.1182 N.3     1  UNL1       -0.2715
     29 C          63.1896   93.6804   -6.3756 C.3     1  UNL1        0.0896
     30 C          62.1016   87.9289   11.0065 C.ar    1  UNL1        0.1680
     31 N          62.5781   88.9154   12.0311 N.ar    1  UNL1       -0.1944
     32 C          63.2943   88.4352   13.2584 C.ar    1  UNL1        0.2240
     33 N          63.5341   86.9684   13.4612 N.ar    1  UNL1       -0.1807
     34 C          63.0577   85.9819   12.4367 C.ar    1  UNL1        0.2240
     35 N          62.3414   86.4621   11.2093 N.ar    1  UNL1       -0.1944
     36 N          63.7708   89.4218   14.2829 N.pl3   1  UNL1       -0.2729
     37 C          64.8826   90.3717   13.9492 C.3     1  UNL1        0.1257
     38 C          65.3590   91.3583   14.9738 C.3     1  UNL1        0.1637
     39 O          64.7237   91.3948   16.3321 O.3     1  UNL1       -0.3501
     40 C          63.6119   90.4448   16.6658 C.3     1  UNL1        0.1637
     41 C          63.1354   89.4583   15.6413 C.3     1  UNL1        0.1257
     42 N          63.2975   84.5151   12.6394 N.pl3   1  UNL1       -0.2729
     43 C          63.3672   83.9515   14.0277 C.3     1  UNL1        0.1257
     44 C          63.6070   82.4847   14.2305 C.3     1  UNL1        0.1637
     45 O          63.7770   81.5816   13.0450 O.3     1  UNL1       -0.3501
     46 C          63.7073   82.1453   11.6567 C.3     1  UNL1        0.1637
     47 C          63.4675   83.6120   11.4539 C.3     1  UNL1        0.1257
@<TRIPOS>BOND
     1    27    28    1
     2    28    29    1
     3    28    19    1
     4    19    20    1
     5    20    21    1
     6    21    22    1
     7    22    23   am
     8    23    24    2
     9    23    13    1
    10    13    14   ar
    11    14    15   ar
    12    15    16   ar
    13    16     7    1
    14     7     8   am
    15     8     9    2
    16     8    10   am
    17    10     1    1
    18     1     2   ar
    19     2     3   ar
    20     3     4   ar
    21     4    30    1
    22    30    31   ar
    23    31    32   ar
    24    32    36    1
    25    36    37    1
    26    37    38    1
    27    38    39    1
    28    39    40    1
    29    40    41    1
    30    32    33   ar
    31    33    34   ar
    32    34    42    1
    33    42    43    1
    34    43    44    1
    35    44    45    1
    36    45    46    1
    37    46    47    1
    38    34    35   ar
    39     4     5   ar
    40     5     6   ar
    41    16    17   ar
    42    17    18   ar
    43    22    25    1
    44    25    26    1
    45    26    19    1
    46    18    13   ar
    47     6     1   ar
    48    35    30   ar
    49    41    36    1
    50    47    42    1
    51     7    11    1
    52    10    12    1
@<TRIPOS>MOLECULE
*****
 47 52 0 0 0
SMALL
GASTEIGER

@<TRIPOS>ATOM
      1 C          59.7272   89.4627    7.0877 C.ar    1  UNL1        0.0516
      2 C          59.8655   87.9843    7.3006 C.ar    1  UNL1        0.0148
      3 C          60.5849   87.4648    8.5099 C.ar    1  UNL1        0.0043
      4 C          61.1660   88.4235    9.5063 C.ar    1  UNL1        0.0361
      5 C          61.0278   89.9019    9.2935 C.ar    1  UNL1        0.0043
      6 C          60.3084   90.4215    8.0842 C.ar    1  UNL1        0.0148
      7 N          58.9793   91.4510    3.7356 N.am    1  UNL1       -0.2681
      8 C          59.6988   90.9315    4.9449 C.2     1  UNL1        0.3082
      9 O          61.1092   91.3612    5.2206 O.2     1  UNL1       -0.2522
     10 N          59.0078   89.9823    5.8784 N.am    1  UNL1       -0.2681
     11 H          58.0536   91.1690    3.5546 H       1  UNL1        0.1564
     12 H          58.0821   89.7003    5.6973 H       1  UNL1        0.1564
     13 C          61.0522   94.2988    0.9348 C.ar    1  UNL1        0.0537
     14 C          59.5870   94.0210    0.7731 C.ar    1  UNL1        0.0058
     15 C          58.8961   93.0718    1.7067 C.ar    1  UNL1        0.0149
     16 C          59.6703   92.4003    2.8020 C.ar    1  UNL1        0.0516
     17 C          61.1354   92.6780    2.9637 C.ar    1  UNL1        0.0149
     18 C          61.8264   93.6272    2.0301 C.ar    1  UNL1        0.0058
     19 C          63.4424   93.7446   -3.8849 C.3     1  UNL1        0.0610
     20 C          63.5668   95.1950   -3.5231 C.3     1  UNL1        0.0375
     21 C          63.0004   95.6961   -2.2277 C.3     1  UNL1        0.0951
     22 N          62.3095   94.7469   -1.2941 N.am    1  UNL1       -0.2760
     23 C          61.7431   95.2480    0.0012 C.2     1  UNL1        0.2490
     24 O          61.8675   96.6983    0.3631 O.2     1  UNL1       -0.2699
     25 C          62.1851   93.2965   -1.6560 C.3     1  UNL1        0.0951
     26 C          62.7515   92.7954   -2.9514 C.3     1  UNL1        0.0375
     27 C          63.3032   93.5372   -6.4709 C.3     1  UNL1        0.0896
     28 N          64.0088   93.2435   -5.1803 N.3     1  UNL1       -0.2715
     29 C          65.2809   92.4487   -5.1851 C.3     1  UNL1        0.0896
     30 C          61.8854   87.9040   10.7157 C.ar    1  UNL1        0.1680
     31 N          62.3828   88.8587   11.7603 N.ar    1  UNL1       -0.1944
     32 C          63.1022   88.3393   12.9696 C.ar    1  UNL1        0.2240
     33 N          63.3243   86.8649   13.1345 N.ar    1  UNL1       -0.1807
     34 C          62.8269   85.9102   12.0899 C.ar    1  UNL1        0.2240
     35 N          62.1075   86.4297   10.8805 N.ar    1  UNL1       -0.1944
     36 N          63.5995   89.2940   14.0141 N.pl3   1  UNL1       -0.2729
     37 C          63.0388   89.2434   15.4044 C.3     1  UNL1        0.1257
     38 C          63.5361   90.1982   16.4490 C.3     1  UNL1        0.1637
     39 O          64.5942   91.2036   16.1032 O.3     1  UNL1       -0.3501
     40 C          65.1550   91.2542   14.7129 C.3     1  UNL1        0.1637
     41 C          64.6577   90.2994   13.6683 C.3     1  UNL1        0.1257
     42 N          63.0490   84.4359   12.2547 N.pl3   1  UNL1       -0.2729
     43 C          63.4478   83.6010   11.0741 C.3     1  UNL1        0.1257
     44 C          63.6699   82.1266   11.2389 C.3     1  UNL1        0.1637
     45 O          63.4931   81.4873   12.5842 O.3     1  UNL1       -0.3501
     46 C          63.0943   82.3223   13.7649 C.3     1  UNL1        0.1637
     47 C          62.8723   83.7966   13.6001 C.3     1  UNL1        0.1257
@<TRIPOS>BOND
     1    27    28    1
     2    28    29    1
     3    28    19    1
     4    19    20    1
     5    20    21    1
     6    21    22    1
     7    22    23   am
     8    23    24    2
     9    23    13    1
    10    13    14   ar
    11    14    15   ar
    12    15    16   ar
    13    16     7    1
    14     7     8   am
    15     8     9    2
    16     8    10   am
    17    10     1    1
    18     1     2   ar
    19     2     3   ar
    20     3     4   ar
    21     4    30    1
    22    30    31   ar
    23    31    32   ar
    24    32    36    1
    25    36    37    1
    26    37    38    1
    27    38    39    1
    28    39    40    1
    29    40    41    1
    30    32    33   ar
    31    33    34   ar
    32    34    42    1
    33    42    43    1
    34    43    44    1
    35    44    45    1
    36    45    46    1
    37    46    47    1
    38    34    35   ar
    39     4     5   ar
    40     5     6   ar
    41    16    17   ar
    42    17    18   ar
    43    22    25    1
    44    25    26    1
    45    26    19    1
    46    18    13   ar
    47     6     1   ar
    48    35    30   ar
    49    41    36    1
    50    47    42    1
    51     7    11    1
    52    10    12    1
@<TRIPOS>MOLECULE
*****
 47 52 0 0 0
SMALL
GASTEIGER

@<TRIPOS>ATOM
      1 C          59.7308   89.4668    7.0858 C.ar    1  UNL1        0.0516
      2 C          60.3169   90.4252    8.0796 C.ar    1  UNL1        0.0148
      3 C          61.0356   89.9053    9.2892 C.ar    1  UNL1        0.0043
      4 C          61.1681   88.4268    9.5049 C.ar    1  UNL1        0.0361
      5 C          60.5820   87.4683    8.5110 C.ar    1  UNL1        0.0043
      6 C          59.8633   87.9883    7.3014 C.ar    1  UNL1        0.0148
      7 N          58.9856   91.4548    3.7328 N.am    1  UNL1       -0.2681
      8 C          59.7043   90.9348    4.9423 C.2     1  UNL1        0.3082
      9 O          61.1153   91.3627    5.2180 O.2     1  UNL1       -0.2522
     10 N          59.0121   89.9869    5.8762 N.am    1  UNL1       -0.2681
     11 H          58.0596   91.1739    3.5519 H       1  UNL1        0.1564
     12 H          58.0860   89.7060    5.6952 H       1  UNL1        0.1564
     13 C          61.0624   94.2988    0.9311 C.ar    1  UNL1        0.0537
     14 C          59.5955   94.0278    0.7734 C.ar    1  UNL1        0.0058
     15 C          58.9033   93.0799    1.7073 C.ar    1  UNL1        0.0149
     16 C          59.6779   92.4028    2.7989 C.ar    1  UNL1        0.0516
     17 C          61.1448   92.6738    2.9566 C.ar    1  UNL1        0.0149
     18 C          61.8370   93.6218    2.0227 C.ar    1  UNL1        0.0058
     19 C          63.4549   93.7391   -3.8868 C.3     1  UNL1        0.0610
     20 C          63.5803   95.1896   -3.5260 C.3     1  UNL1        0.0375
     21 C          63.0135   95.6922   -2.2314 C.3     1  UNL1        0.0951
     22 N          62.3214   94.7442   -1.2975 N.am    1  UNL1       -0.2760
     23 C          61.7546   95.2468   -0.0028 C.2     1  UNL1        0.2490
     24 O          61.8800   96.6973    0.3580 O.2     1  UNL1       -0.2699
     25 C          62.1959   93.2937   -1.6583 C.3     1  UNL1        0.0951
     26 C          62.7627   92.7911   -2.9530 C.3     1  UNL1        0.0375
     27 C          65.2920   92.4388   -5.1847 C.3     1  UNL1        0.0896
     28 N          64.0217   93.2365   -5.1815 N.3     1  UNL1       -0.2715
     29 C          63.3182   93.5317   -6.4730 C.3     1  UNL1        0.0896
     30 C          61.8868   87.9067   10.7145 C.ar    1  UNL1        0.1680
     31 N          62.1083   86.4323   10.8790 N.ar    1  UNL1       -0.1944
     32 C          62.8269   85.9122   12.0886 C.ar    1  UNL1        0.2240
     33 N          63.3242   86.8666   13.1336 N.ar    1  UNL1       -0.1807
     34 C          63.1027   88.3410   12.9691 C.ar    1  UNL1        0.2240
     35 N          62.3840   88.8611   11.7594 N.ar    1  UNL1       -0.1944
     36 N          63.0484   84.4378   12.2531 N.pl3   1  UNL1       -0.2729
     37 C          62.8702   83.7982   13.5981 C.3     1  UNL1        0.1257
     38 C          63.0917   82.3238   13.7626 C.3     1  UNL1        0.1637
     39 O          63.4913   81.4890   12.5822 O.3     1  UNL1       -0.3501
     40 C          63.6695   82.1287   11.2371 C.3     1  UNL1        0.1637
     41 C          63.4480   83.6031   11.0726 C.3     1  UNL1        0.1257
     42 N          63.5999   89.2953   14.0140 N.pl3   1  UNL1       -0.2729
     43 C          63.0426   89.2407   15.4055 C.3     1  UNL1        0.1257
     44 C          63.5398   90.1951   16.4506 C.3     1  UNL1        0.1637
     45 O          64.5943   91.2040   16.1041 O.3     1  UNL1       -0.3501
     46 C          65.1516   91.2585   14.7124 C.3     1  UNL1        0.1637
     47 C          64.6544   90.3042   13.6675 C.3     1  UNL1        0.1257
@<TRIPOS>BOND
     1    27    28    1
     2    28    29    1
     3    28    19    1
     4    19    20    1
     5    20    21    1
     6    21    22    1
     7    22    23   am
     8    23    24    2
     9    23    13    1
    10    13    14   ar
    11    14    15   ar
    12    15    16   ar
    13    16     7    1
    14     7     8   am
    15     8     9    2
    16     8    10   am
    17    10     1    1
    18     1     2   ar
    19     2     3   ar
    20     3     4   ar
    21     4    30    1
    22    30    31   ar
    23    31    32   ar
    24    32    36    1
    25    36    37    1
    26    37    38    1
    27    38    39    1
    28    39    40    1
    29    40    41    1
    30    32    33   ar
    31    33    34   ar
    32    34    42    1
    33    42    43    1
    34    43    44    1
    35    44    45    1
    36    45    46    1
    37    46    47    1
    38    34    35   ar
    39     4     5   ar
    40     5     6   ar
    41    16    17   ar
    42    17    18   ar
    43    22    25    1
    44    25    26    1
    45    26    19    1
    46    18    13   ar
    47     6     1   ar
    48    35    30   ar
    49    41    36    1
    50    47    42    1
    51     7    11    1
    52    10    12    1
@<TRIPOS>MOLECULE
*****
 47 52 0 0 0
SMALL
GASTEIGER

@<TRIPOS>ATOM
      1 C          59.9715   89.4055    7.4910 C.ar    1  UNL1        0.0516
      2 C          60.2259   87.9434    7.7089 C.ar    1  UNL1        0.0148
      3 C          60.9546   87.4837    8.9368 C.ar    1  UNL1        0.0043
      4 C          61.4288   88.4862    9.9468 C.ar    1  UNL1        0.0361
      5 C          61.1743   89.9483    9.7288 C.ar    1  UNL1        0.0043
      6 C          60.4457   90.4080    8.5010 C.ar    1  UNL1        0.0148
      7 N          59.2033   91.2134    4.0426 N.am    1  UNL1       -0.2681
      8 C          59.9319   90.7538    5.2705 C.2     1  UNL1        0.3082
      9 O          61.3498   91.1830    5.5059 O.2     1  UNL1       -0.2522
     10 N          59.2428   89.8651    6.2630 N.am    1  UNL1       -0.2681
     11 H          58.2727   90.9316    3.8881 H       1  UNL1        0.1564
     12 H          58.3122   89.5834    6.1085 H       1  UNL1        0.1564
     13 C          61.2708   93.8797    1.0649 C.ar    1  UNL1        0.0537
     14 C          62.0772   92.9708    1.9445 C.ar    1  UNL1        0.0058
     15 C          61.3880   92.0820    2.9370 C.ar    1  UNL1        0.0149
     16 C          59.8924   92.1022    3.0500 C.ar    1  UNL1        0.0516
     17 C          59.0860   93.0110    2.1705 C.ar    1  UNL1        0.0149
     18 C          59.7752   93.8999    1.1779 C.ar    1  UNL1        0.0058
     19 C          60.7865   94.6270   -4.2696 C.3     1  UNL1        0.0610
     20 C          61.8668   95.5629   -3.8147 C.3     1  UNL1        0.0375
     21 C          62.2580   95.6100   -2.3674 C.3     1  UNL1        0.0951
     22 N          61.5688   94.7213   -1.3749 N.am    1  UNL1       -0.2760
     23 C          61.9600   94.7685    0.0724 C.2     1  UNL1        0.2490
     24 O          63.0403   95.7043    0.5273 O.2     1  UNL1       -0.2699
     25 C          60.4885   93.7854   -1.8297 C.3     1  UNL1        0.0951
     26 C          60.0973   93.7383   -3.2771 C.3     1  UNL1        0.0375
     27 C          61.4123   94.8766   -6.7787 C.3     1  UNL1        0.0896
     28 N          60.3953   94.5798   -5.7169 N.3     1  UNL1       -0.2715
     29 C          58.9871   94.2359   -6.1024 C.3     1  UNL1        0.0896
     30 C          62.1575   88.0266   11.1748 C.ar    1  UNL1        0.1680
     31 N          62.3896   86.5627   11.4052 N.ar    1  UNL1       -0.1944
     32 C          63.1183   86.1031   12.6331 C.ar    1  UNL1        0.2240
     33 N          63.6148   87.1074   13.6306 N.ar    1  UNL1       -0.1807
     34 C          63.3826   88.5713   13.4001 C.ar    1  UNL1        0.2240
     35 N          62.6539   89.0309   12.1722 N.ar    1  UNL1       -0.1944
     36 N          63.3504   84.6392   12.8636 N.pl3   1  UNL1       -0.2729
     37 C          63.9401   83.7928   11.7747 C.3     1  UNL1        0.1257
     38 C          64.1722   82.3289   12.0052 C.3     1  UNL1        0.1637
     39 O          63.8147   81.7115   13.3246 O.3     1  UNL1       -0.3501
     40 C          63.2250   82.5579   14.4136 C.3     1  UNL1        0.1637
     41 C          62.9929   84.0218   14.1831 C.3     1  UNL1        0.1257
     42 N          63.8791   89.5756   14.3975 N.pl3   1  UNL1       -0.2729
     43 C          65.0243   90.4785   14.0463 C.3     1  UNL1        0.1257
     44 C          65.5208   91.4828   15.0437 C.3     1  UNL1        0.1637
     45 O          64.8722   91.5842   16.3924 O.3     1  UNL1       -0.3501
     46 C          63.7270   90.6813   16.7436 C.3     1  UNL1        0.1637
     47 C          63.2305   89.6770   15.7462 C.3     1  UNL1        0.1257
@<TRIPOS>BOND
     1    27    28    1
     2    28    29    1
     3    28    19    1
     4    19    20    1
     5    20    21    1
     6    21    22    1
     7    22    23   am
     8    23    24    2
     9    23    13    1
    10    13    14   ar
    11    14    15   ar
    12    15    16   ar
    13    16     7    1
    14     7     8   am
    15     8     9    2
    16     8    10   am
    17    10     1    1
    18     1     2   ar
    19     2     3   ar
    20     3     4   ar
    21     4    30    1
    22    30    31   ar
    23    31    32   ar
    24    32    36    1
    25    36    37    1
    26    37    38    1
    27    38    39    1
    28    39    40    1
    29    40    41    1
    30    32    33   ar
    31    33    34   ar
    32    34    42    1
    33    42    43    1
    34    43    44    1
    35    44    45    1
    36    45    46    1
    37    46    47    1
    38    34    35   ar
    39     4     5   ar
    40     5     6   ar
    41    16    17   ar
    42    17    18   ar
    43    22    25    1
    44    25    26    1
    45    26    19    1
    46    18    13   ar
    47     6     1   ar
    48    35    30   ar
    49    41    36    1
    50    47    42    1
    51     7    11    1
    52    10    12    1
@<TRIPOS>MOLECULE
*****
 47 52 0 0 0
SMALL
GASTEIGER

@<TRIPOS>ATOM
      1 C          59.2225   90.4733    5.5537 C.ar    1  UNL1        0.0516
      2 C          58.0486   91.1824    4.9461 C.ar    1  UNL1        0.0148
      3 C          58.2504   92.1035    3.7796 C.ar    1  UNL1        0.0043
      4 C          59.6261   92.3155    3.2206 C.ar    1  UNL1        0.0361
      5 C          60.8000   91.6063    3.8282 C.ar    1  UNL1        0.0043
      6 C          60.5982   90.6853    4.9947 C.ar    1  UNL1        0.0148
      7 N          59.7871   88.6481    9.0322 N.am    1  UNL1       -0.2681
      8 C          59.9890   89.5692    7.8657 C.2     1  UNL1        0.3082
      9 O          61.1592   90.5074    7.8446 O.2     1  UNL1       -0.2522
     10 N          59.0206   89.5522    6.7203 N.am    1  UNL1       -0.2681
     11 H          59.0190   88.0324    9.0460 H       1  UNL1        0.1564
     12 H          58.2526   88.9364    6.7341 H       1  UNL1        0.1564
     13 C          62.6920   88.6993   12.4686 C.ar    1  UNL1        0.0537
     14 C          61.6605   89.7810   12.3423 C.ar    1  UNL1        0.0058
     15 C          60.6922   89.7639   11.1969 C.ar    1  UNL1        0.0149
     16 C          60.7554   88.6652   10.1777 C.ar    1  UNL1        0.0516
     17 C          61.7869   87.5835   10.3039 C.ar    1  UNL1        0.0149
     18 C          62.7552   87.6005   11.4494 C.ar    1  UNL1        0.0058
     19 C          66.2746   92.3148   14.2969 C.3     1  UNL1        0.0610
     20 C          66.3715   91.1324   15.2148 C.3     1  UNL1        0.0375
     21 C          65.5000   89.9329   14.9871 C.3     1  UNL1        0.0951
     22 N          64.5318   89.9158   13.8417 N.am    1  UNL1       -0.2760
     23 C          63.6603   88.7163   13.6141 C.2     1  UNL1        0.2490
     24 O          63.7572   87.5339   14.5319 O.2     1  UNL1       -0.2699
     25 C          64.4349   91.0983   12.9239 C.3     1  UNL1        0.0951
     26 C          65.3064   92.2977   13.1515 C.3     1  UNL1        0.0375
     27 C          68.3108   93.4274   15.4657 C.3     1  UNL1        0.0896
     28 N          67.1461   93.5143   14.5246 N.3     1  UNL1       -0.2715
     29 C          66.8527   94.8007   13.8111 C.3     1  UNL1        0.0896
     30 C          59.8280   93.2366    2.0540 C.ar    1  UNL1        0.1680
     31 N          58.6802   93.5546    1.1422 N.ar    1  UNL1       -0.1944
     32 C          58.8820   94.4757   -0.0244 C.ar    1  UNL1        0.2240
     33 N          60.2317   95.0788   -0.2791 N.ar    1  UNL1       -0.1807
     34 C          61.3794   94.7608    0.6328 C.ar    1  UNL1        0.2240
     35 N          61.1776   93.8397    1.7994 N.ar    1  UNL1       -0.1944
     36 N          57.7343   94.7937   -0.9362 N.pl3   1  UNL1       -0.2729
     37 C          57.5786   96.1785   -1.4910 C.3     1  UNL1        0.1257
     38 C          56.4308   96.4965   -2.4029 C.3     1  UNL1        0.1637
     39 O          55.4387   95.4297   -2.7600 O.3     1  UNL1       -0.3501
     40 C          55.5944   94.0447   -2.2052 C.3     1  UNL1        0.1637
     41 C          56.7422   93.7267   -1.2933 C.3     1  UNL1        0.1257
     42 N          62.7290   95.3639    0.3781 N.pl3   1  UNL1       -0.2729
     43 C          63.3624   95.2399   -0.9759 C.3     1  UNL1        0.1257
     44 C          64.7121   95.8430   -1.2306 C.3     1  UNL1        0.1637
     45 O          65.4282   96.5700   -0.1313 O.3     1  UNL1       -0.3501
     46 C          64.7948   96.6939    1.2228 C.3     1  UNL1        0.1637
     47 C          63.4452   96.0909    1.4775 C.3     1  UNL1        0.1257
@<TRIPOS>BOND
     1    27    28    1
     2    28    29    1
     3    28    19    1
     4    19    20    1
     5    20    21    1
     6    21    22    1
     7    22    23   am
     8    23    24    2
     9    23    13    1
    10    13    14   ar
    11    14    15   ar
    12    15    16   ar
    13    16     7    1
    14     7     8   am
    15     8     9    2
    16     8    10   am
    17    10     1    1
    18     1     2   ar
    19     2     3   ar
    20     3     4   ar
    21     4    30    1
    22    30    31   ar
    23    31    32   ar
    24    32    36    1
    25    36    37    1
    26    37    38    1
    27    38    39    1
    28    39    40    1
    29    40    41    1
    30    32    33   ar
    31    33    34   ar
    32    34    42    1
    33    42    43    1
    34    43    44    1
    35    44    45    1
    36    45    46    1
    37    46    47    1
    38    34    35   ar
    39     4     5   ar
    40     5     6   ar
    41    16    17   ar
    42    17    18   ar
    43    22    25    1
    44    25    26    1
    45    26    19    1
    46    18    13   ar
    47     6     1   ar
    48    35    30   ar
    49    41    36    1
    50    47    42    1
    51     7    11    1
    52    10    12    1
@<TRIPOS>MOLECULE
*****
 47 52 0 0 0
SMALL
GASTEIGER

@<TRIPOS>ATOM
      1 C          59.2731   90.5075    5.5037 C.ar    1  UNL1        0.0516
      2 C          58.1014   91.2081    4.8822 C.ar    1  UNL1        0.0148
      3 C          58.3102   92.1295    3.7172 C.ar    1  UNL1        0.0043
      4 C          59.6907   92.3504    3.1737 C.ar    1  UNL1        0.0361
      5 C          60.8624   91.6498    3.7953 C.ar    1  UNL1        0.0043
      6 C          60.6536   90.7283    4.9603 C.ar    1  UNL1        0.0148
      7 N          59.8121   88.6871    8.9888 N.am    1  UNL1       -0.2681
      8 C          60.0210   89.6086    7.8238 C.2     1  UNL1        0.3082
      9 O          61.1866   90.5526    7.8138 O.2     1  UNL1       -0.2522
     10 N          59.0642   89.5860    6.6688 N.am    1  UNL1       -0.2681
     11 H          59.0470   88.0676    8.9953 H       1  UNL1        0.1564
     12 H          58.2992   88.9664    6.6754 H       1  UNL1        0.1564
     13 C          62.6823   88.7548   12.4540 C.ar    1  UNL1        0.0537
     14 C          61.5992   89.7880   12.3570 C.ar    1  UNL1        0.0058
     15 C          60.6425   89.7654   11.2019 C.ar    1  UNL1        0.0149
     16 C          60.7688   88.7097   10.1439 C.ar    1  UNL1        0.0516
     17 C          61.8519   87.6765   10.2409 C.ar    1  UNL1        0.0149
     18 C          62.8087   87.6990   11.3960 C.ar    1  UNL1        0.0058
     19 C          66.3472   92.3191   14.2187 C.3     1  UNL1        0.0610
     20 C          66.4011   91.1611   15.1706 C.3     1  UNL1        0.0375
     21 C          65.4984   89.9805   14.9673 C.3     1  UNL1        0.0951
     22 N          64.5417   89.9579   13.8123 N.am    1  UNL1       -0.2760
     23 C          63.6390   88.7773   13.6091 C.2     1  UNL1        0.2490
     24 O          63.6930   87.6193   14.5609 O.2     1  UNL1       -0.2699
     25 C          64.4877   91.1160   12.8605 C.3     1  UNL1        0.0951
     26 C          65.3905   92.2965   13.0637 C.3     1  UNL1        0.0375
     27 C          68.5006   93.3559   15.2373 C.3     1  UNL1        0.0896
     28 N          67.2499   93.4997   14.4219 N.3     1  UNL1       -0.2715
     29 C          66.9018   94.8241   13.8098 C.3     1  UNL1        0.0896
     30 C          59.8996   93.2719    2.0086 C.ar    1  UNL1        0.1680
     31 N          61.2548   93.8617    1.7525 N.ar    1  UNL1       -0.1944
     32 C          61.4637   94.7831    0.5875 C.ar    1  UNL1        0.2240
     33 N          60.3174   95.1148   -0.3214 N.ar    1  UNL1       -0.1807
     34 C          58.9622   94.5250   -0.0653 C.ar    1  UNL1        0.2240
     35 N          58.7533   93.6035    1.0998 N.ar    1  UNL1       -0.1944
     36 N          62.8189   95.3729    0.3313 N.pl3   1  UNL1       -0.2729
     37 C          63.5476   96.0843    1.4326 C.3     1  UNL1        0.1257
     38 C          64.9027   96.6741    1.1765 C.3     1  UNL1        0.1637
     39 O          65.5292   96.5525   -0.1810 O.3     1  UNL1       -0.3501
     40 C          64.8005   95.8411   -1.2823 C.3     1  UNL1        0.1637
     41 C          63.4454   95.2513   -1.0262 C.3     1  UNL1        0.1257
     42 N          57.8159   94.8566   -0.9741 N.pl3   1  UNL1       -0.2729
     43 C          56.7046   93.8686   -1.1707 C.3     1  UNL1        0.1257
     44 C          55.5582   94.2002   -2.0796 C.3     1  UNL1        0.1637
     45 O          55.5233   95.5198   -2.7918 O.3     1  UNL1       -0.3501
     46 C          56.6348   96.5079   -2.5953 C.3     1  UNL1        0.1637
     47 C          57.7810   96.1762   -1.6864 C.3     1  UNL1        0.1257
@<TRIPOS>BOND
     1    27    28    1
     2    28    29    1
     3    28    19    1
     4    19    20    1
     5    20    21    1
     6    21    22    1
     7    22    23   am
     8    23    24    2
     9    23    13    1
    10    13    14   ar
    11    14    15   ar
    12    15    16   ar
    13    16     7    1
    14     7     8   am
    15     8     9    2
    16     8    10   am
    17    10     1    1
    18     1     2   ar
    19     2     3   ar
    20     3     4   ar
    21     4    30    1
    22    30    31   ar
    23    31    32   ar
    24    32    36    1
    25    36    37    1
    26    37    38    1
    27    38    39    1
    28    39    40    1
    29    40    41    1
    30    32    33   ar
    31    33    34   ar
    32    34    42    1
    33    42    43    1
    34    43    44    1
    35    44    45    1
    36    45    46    1
    37    46    47    1
    38    34    35   ar
    39     4     5   ar
    40     5     6   ar
    41    16    17   ar
    42    17    18   ar
    43    22    25    1
    44    25    26    1
    45    26    19    1
    46    18    13   ar
    47     6     1   ar
    48    35    30   ar
    49    41    36    1
    50    47    42    1
    51     7    11    1
    52    10    12    1
@<TRIPOS>MOLECULE
*****
 47 52 0 0 0
SMALL
GASTEIGER

@<TRIPOS>ATOM
      1 C          59.0588   92.2588    4.2122 C.ar    1  UNL1        0.0516
      2 C          60.1731   93.2625    4.1839 C.ar    1  UNL1        0.0148
      3 C          60.5311   93.9496    2.8995 C.ar    1  UNL1        0.0043
      4 C          59.7747   93.6331    1.6435 C.ar    1  UNL1        0.0361
      5 C          58.6604   92.6294    1.6718 C.ar    1  UNL1        0.0043
      6 C          58.3024   91.9423    2.9562 C.ar    1  UNL1        0.0148
      7 N          59.1628   89.7257    7.2655 N.am    1  UNL1       -0.2681
      8 C          59.5207   90.4128    5.9811 C.2     1  UNL1        0.3082
      9 O          60.6987   89.9410    5.1811 O.2     1  UNL1       -0.2522
     10 N          58.7008   91.5716    5.4967 N.am    1  UNL1       -0.2681
     11 H          58.3897   90.0353    7.7905 H       1  UNL1        0.1564
     12 H          57.9277   91.8813    6.0217 H       1  UNL1        0.1564
     13 C          61.6226   86.2490    8.7189 C.ar    1  UNL1        0.0537
     14 C          61.8621   87.6216    9.2745 C.ar    1  UNL1        0.0058
     15 C          61.0422   88.7805    8.7900 C.ar    1  UNL1        0.0149
     16 C          59.9827   88.5668    7.7499 C.ar    1  UNL1        0.0516
     17 C          59.7431   87.1942    7.1943 C.ar    1  UNL1        0.0149
     18 C          60.5631   86.0353    7.6788 C.ar    1  UNL1        0.0058
     19 C          63.0035   84.4202   13.6177 C.3     1  UNL1        0.0610
     20 C          63.6364   83.4847   12.6308 C.3     1  UNL1        0.0375
     21 C          63.4494   83.7080   11.1593 C.3     1  UNL1        0.0951
     22 N          62.6295   84.8669   10.6748 N.am    1  UNL1       -0.2760
     23 C          62.4425   85.0902    9.2034 C.2     1  UNL1        0.2490
     24 O          63.0755   84.1547    8.2164 O.2     1  UNL1       -0.2699
     25 C          61.9966   85.8024   11.6618 C.3     1  UNL1        0.0951
     26 C          62.1836   85.5791   13.1333 C.3     1  UNL1        0.0375
     27 C          64.2545   83.2585   15.5761 C.3     1  UNL1        0.0896
     28 N          63.1905   84.1969   15.0892 N.3     1  UNL1       -0.2715
     29 C          62.3135   84.9121   16.0737 C.3     1  UNL1        0.0896
     30 C          60.1327   94.3203    0.3590 C.ar    1  UNL1        0.1680
     31 N          59.0709   94.6008   -0.6627 N.ar    1  UNL1       -0.1944
     32 C          59.4288   95.2879   -1.9471 C.ar    1  UNL1        0.2240
     33 N          60.8486   95.6946   -2.2098 N.ar    1  UNL1       -0.1807
     34 C          61.9104   95.4141   -1.1881 C.ar    1  UNL1        0.2240
     35 N          61.5524   94.7269    0.0963 N.ar    1  UNL1       -0.1944
     36 N          58.3670   95.5684   -2.9688 N.pl3   1  UNL1       -0.2729
     37 C          56.9258   95.6246   -2.5567 C.3     1  UNL1        0.1257
     38 C          55.8640   95.9051   -3.5784 C.3     1  UNL1        0.1637
     39 O          56.2434   96.1295   -5.0122 O.3     1  UNL1       -0.3501
     40 C          57.6846   96.0734   -5.4243 C.3     1  UNL1        0.1637
     41 C          58.7464   95.7929   -4.4026 C.3     1  UNL1        0.1257
     42 N          63.3301   95.8207   -1.4508 N.pl3   1  UNL1       -0.2729
     43 C          63.8384   95.9021   -2.8597 C.3     1  UNL1        0.1257
     44 C          65.2582   96.3087   -3.1224 C.3     1  UNL1        0.1637
     45 O          66.1696   96.6339   -1.9763 O.3     1  UNL1       -0.3501
     46 C          65.6612   96.5524   -0.5673 C.3     1  UNL1        0.1637
     47 C          64.2414   96.1458   -0.3047 C.3     1  UNL1        0.1257
@<TRIPOS>BOND
     1    27    28    1
     2    28    29    1
     3    28    19    1
     4    19    20    1
     5    20    21    1
     6    21    22    1
     7    22    23   am
     8    23    24    2
     9    23    13    1
    10    13    14   ar
    11    14    15   ar
    12    15    16   ar
    13    16     7    1
    14     7     8   am
    15     8     9    2
    16     8    10   am
    17    10     1    1
    18     1     2   ar
    19     2     3   ar
    20     3     4   ar
    21     4    30    1
    22    30    31   ar
    23    31    32   ar
    24    32    36    1
    25    36    37    1
    26    37    38    1
    27    38    39    1
    28    39    40    1
    29    40    41    1
    30    32    33   ar
    31    33    34   ar
    32    34    42    1
    33    42    43    1
    34    43    44    1
    35    44    45    1
    36    45    46    1
    37    46    47    1
    38    34    35   ar
    39     4     5   ar
    40     5     6   ar
    41    16    17   ar
    42    17    18   ar
    43    22    25    1
    44    25    26    1
    45    26    19    1
    46    18    13   ar
    47     6     1   ar
    48    35    30   ar
    49    41    36    1
    50    47    42    1
    51     7    11    1
    52    10    12    1
@<TRIPOS>MOLECULE
*****
 47 52 0 0 0
SMALL
GASTEIGER

@<TRIPOS>ATOM
      1 C          59.0430   92.1871    4.2308 C.ar    1  UNL1        0.0516
      2 C          58.1750   91.9853    3.0241 C.ar    1  UNL1        0.0148
      3 C          58.5148   92.6692    1.7331 C.ar    1  UNL1        0.0043
      4 C          59.7224   93.5548    1.6486 C.ar    1  UNL1        0.0361
      5 C          60.5904   93.7565    2.8553 C.ar    1  UNL1        0.0043
      6 C          60.2507   93.0727    4.1463 C.ar    1  UNL1        0.0148
      7 N          59.1951   89.6671    7.2928 N.am    1  UNL1       -0.2681
      8 C          59.5349   90.3509    6.0018 C.2     1  UNL1        0.3082
      9 O          60.7065   89.8824    5.1906 O.2     1  UNL1       -0.2522
     10 N          58.7032   91.5032    5.5219 N.am    1  UNL1       -0.2681
     11 H          58.4262   89.9746    7.8252 H       1  UNL1        0.1564
     12 H          57.9343   91.8107    6.0543 H       1  UNL1        0.1564
     13 C          61.6904   86.2100    8.7327 C.ar    1  UNL1        0.0537
     14 C          61.9455   87.5906    9.2611 C.ar    1  UNL1        0.0058
     15 C          61.1137   88.7429    8.7811 C.ar    1  UNL1        0.0149
     16 C          60.0269   88.5147    7.7728 C.ar    1  UNL1        0.0516
     17 C          59.7718   87.1343    7.2444 C.ar    1  UNL1        0.0149
     18 C          60.6036   85.9819    7.7243 C.ar    1  UNL1        0.0058
     19 C          63.4287   84.6096   13.5975 C.3     1  UNL1        0.0610
     20 C          63.9583   83.6067   12.6159 C.3     1  UNL1        0.0375
     21 C          63.6561   83.7561   11.1542 C.3     1  UNL1        0.0951
     22 N          62.8243   84.9084   10.6743 N.am    1  UNL1       -0.2760
     23 C          62.5222   85.0578    9.2126 C.2     1  UNL1        0.2490
     24 O          63.0517   84.0549    8.2310 O.2     1  UNL1       -0.2699
     25 C          62.2948   85.9113   11.6560 C.3     1  UNL1        0.0951
     26 C          62.5970   85.7619   13.1176 C.3     1  UNL1        0.0375
     27 C          63.9145   85.6780   15.9154 C.3     1  UNL1        0.0896
     28 N          63.7309   84.4602   15.0592 N.3     1  UNL1       -0.2715
     29 C          63.8495   83.0930   15.6646 C.3     1  UNL1        0.0896
     30 C          60.0622   94.2387    0.3575 C.ar    1  UNL1        0.1680
     31 N          61.4789   94.6403    0.0718 N.ar    1  UNL1       -0.1944
     32 C          61.8187   95.3242   -1.2193 C.ar    1  UNL1        0.2240
     33 N          60.7418   95.6064   -2.2246 N.ar    1  UNL1       -0.1807
     34 C          59.3251   95.2048   -1.9389 C.ar    1  UNL1        0.2240
     35 N          58.9854   94.5209   -0.6478 N.ar    1  UNL1       -0.1944
     36 N          63.2354   95.7258   -1.5050 N.pl3   1  UNL1       -0.2729
     37 C          63.7774   95.6229   -2.8999 C.3     1  UNL1        0.1257
     38 C          65.1941   96.0245   -3.1856 C.3     1  UNL1        0.1637
     39 O          66.0688   96.5291   -2.0765 O.3     1  UNL1       -0.3501
     40 C          65.5269   96.6321   -0.6816 C.3     1  UNL1        0.1637
     41 C          64.1102   96.2305   -0.3958 C.3     1  UNL1        0.1257
     42 N          58.2483   95.4870   -2.9442 N.pl3   1  UNL1       -0.2729
     43 C          58.6119   95.9660   -4.3183 C.3     1  UNL1        0.1257
     44 C          57.5350   96.2482   -5.3236 C.3     1  UNL1        0.1637
     45 O          56.0945   96.0515   -4.9548 O.3     1  UNL1       -0.3501
     46 C          55.7308   95.5724   -3.5806 C.3     1  UNL1        0.1637
     47 C          56.8077   95.2902   -2.5753 C.3     1  UNL1        0.1257
@<TRIPOS>BOND
     1    27    28    1
     2    28    29    1
     3    28    19    1
     4    19    20    1
     5    20    21    1
     6    21    22    1
     7    22    23   am
     8    23    24    2
     9    23    13    1
    10    13    14   ar
    11    14    15   ar
    12    15    16   ar
    13    16     7    1
    14     7     8   am
    15     8     9    2
    16     8    10   am
    17    10     1    1
    18     1     2   ar
    19     2     3   ar
    20     3     4   ar
    21     4    30    1
    22    30    31   ar
    23    31    32   ar
    24    32    36    1
    25    36    37    1
    26    37    38    1
    27    38    39    1
    28    39    40    1
    29    40    41    1
    30    32    33   ar
    31    33    34   ar
    32    34    42    1
    33    42    43    1
    34    43    44    1
    35    44    45    1
    36    45    46    1
    37    46    47    1
    38    34    35   ar
    39     4     5   ar
    40     5     6   ar
    41    16    17   ar
    42    17    18   ar
    43    22    25    1
    44    25    26    1
    45    26    19    1
    46    18    13   ar
    47     6     1   ar
    48    35    30   ar
    49    41    36    1
    50    47    42    1
    51     7    11    1
    52    10    12    1
