@<TRIPOS>MOLECULE
*****
 8 7 0 0 0
SMALL
GASTEIGER

@<TRIPOS>ATOM
      1 C          62.7039   81.8262   12.5617 C.3     1  UNL1        0.0321
      2 C          62.7457   83.3256   12.5687 C.3     1  UNL1        0.0055
      3 C          62.6620   80.3268   12.5548 C.3     1  UNL1        0.0055
      4 C          62.1737   81.8345   13.9649 C.2     1  UNL1        0.0496
      5 O          62.9002   82.5918   15.0367 O.co2   1  UNL1       -0.5492
      6 O          60.9170   81.0856   14.2962 O.co2   1  UNL1       -0.5492
      7 C          64.2430   82.8426   10.7320 C.3     1  UNL1        0.0004
      8 C          63.2340   81.8180   11.1585 C.3     1  UNL1        0.0052
@<TRIPOS>UNITY_ATOM_ATTR
5 1
charge -1
@<TRIPOS>BOND
     1     7     8    1
     2     8     1    1
     3     1     2    1
     4     1     3    1
     5     1     4    1
     6     4     5   ar
     7     4     6   ar
@<TRIPOS>MOLECULE
*****
 8 7 0 0 0
SMALL
GASTEIGER

@<TRIPOS>ATOM
      1 C          62.7053   81.8171   12.5589 C.3     1  UNL1        0.0321
      2 C          62.6605   80.3178   12.5598 C.3     1  UNL1        0.0055
      3 C          62.7502   83.3164   12.5579 C.3     1  UNL1        0.0055
      4 C          62.1743   81.8339   13.9616 C.2     1  UNL1        0.0496
      5 O          62.9062   82.5887   15.0316 O.co2   1  UNL1       -0.5492
      6 O          60.9115   81.0960   14.2944 O.co2   1  UNL1       -0.5492
      7 C          64.2153   82.8464   10.7121 C.3     1  UNL1        0.0004
      8 C          63.2363   81.8003   11.1561 C.3     1  UNL1        0.0052
@<TRIPOS>UNITY_ATOM_ATTR
5 1
charge -1
@<TRIPOS>BOND
     1     7     8    1
     2     8     1    1
     3     1     2    1
     4     1     3    1
     5     1     4    1
     6     4     5   ar
     7     4     6   ar
@<TRIPOS>MOLECULE
*****
 8 7 0 0 0
SMALL
GASTEIGER

@<TRIPOS>ATOM
      1 C          64.2477   90.2326   14.8954 C.3     1  UNL1        0.0321
      2 C          65.1159   90.8523   13.8409 C.3     1  UNL1        0.0055
      3 C          63.3795   89.6129   15.9500 C.3     1  UNL1        0.0055
      4 C          64.3421   91.4880   15.7109 C.2     1  UNL1        0.0496
      5 O          63.3032   91.7867   16.7509 O.co2   1  UNL1       -0.5492
      6 O          65.4753   92.4447   15.4863 O.co2   1  UNL1       -0.5492
      7 C          64.4083   87.6453   14.7211 C.3     1  UNL1        0.0004
      8 C          64.1533   88.9771   14.0799 C.3     1  UNL1        0.0052
@<TRIPOS>UNITY_ATOM_ATTR
5 1
charge -1
@<TRIPOS>BOND
     1     7     8    1
     2     8     1    1
     3     1     2    1
     4     1     3    1
     5     1     4    1
     6     4     5   ar
     7     4     6   ar
@<TRIPOS>MOLECULE
*****
 8 7 0 0 0
SMALL
GASTEIGER

@<TRIPOS>ATOM
      1 C          61.0206   86.8497    8.6420 C.3     1  UNL1        0.0321
      2 C          60.6723   85.7758    7.6544 C.3     1  UNL1        0.0055
      3 C          61.3689   87.9236    9.6296 C.3     1  UNL1        0.0055
      4 C          59.7898   87.6111    8.2481 C.2     1  UNL1        0.0496
      5 O          59.8312   89.1077    8.1554 O.co2   1  UNL1       -0.5492
      6 O          58.5174   86.8760    7.9469 O.co2   1  UNL1       -0.5492
      7 C          62.9230   85.1838    8.0454 C.3     1  UNL1        0.0004
      8 C          62.2515   86.0882    9.0359 C.3     1  UNL1        0.0052
@<TRIPOS>UNITY_ATOM_ATTR
5 1
charge -1
@<TRIPOS>BOND
     1     7     8    1
     2     8     1    1
     3     1     2    1
     4     1     3    1
     5     1     4    1
     6     4     5   ar
     7     4     6   ar
@<TRIPOS>MOLECULE
*****
 8 7 0 0 0
SMALL
GASTEIGER

@<TRIPOS>ATOM
      1 C          62.8396   84.9741    9.9816 C.3     1  UNL1        0.0321
      2 C          62.9583   85.4178    8.5537 C.3     1  UNL1        0.0055
      3 C          62.7209   84.5305   11.4096 C.3     1  UNL1        0.0055
      4 C          62.0061   86.1831   10.2880 C.2     1  UNL1        0.0496
      5 O          61.9110   87.3005    9.2918 O.co2   1  UNL1       -0.5492
      6 O          61.2678   86.2746   11.5905 O.co2   1  UNL1       -0.5492
      7 C          64.3582   83.0255   10.7858 C.3     1  UNL1        0.0004
      8 C          63.6731   83.7652    9.6752 C.3     1  UNL1        0.0052
@<TRIPOS>UNITY_ATOM_ATTR
5 1
charge -1
@<TRIPOS>BOND
     1     7     8    1
     2     8     1    1
     3     1     2    1
     4     1     3    1
     5     1     4    1
     6     4     5   ar
     7     4     6   ar
@<TRIPOS>MOLECULE
*****
 8 7 0 0 0
SMALL
GASTEIGER

@<TRIPOS>ATOM
      1 C          60.9640   86.6308    8.8846 C.3     1  UNL1        0.0321
      2 C          61.9550   85.7062    8.2420 C.3     1  UNL1        0.0055
      3 C          59.9731   87.5555    9.5273 C.3     1  UNL1        0.0055
      4 C          59.9282   86.2180    7.8814 C.2     1  UNL1        0.0496
      5 O          58.5762   86.8678    7.8886 O.co2   1  UNL1       -0.5492
      6 O          60.2442   85.1553    6.8711 O.co2   1  UNL1       -0.5492
      7 C          62.1867   86.2464   11.1446 C.3     1  UNL1        0.0004
      8 C          62.0000   87.0437    9.8879 C.3     1  UNL1        0.0052
@<TRIPOS>UNITY_ATOM_ATTR
5 1
charge -1
@<TRIPOS>BOND
     1     7     8    1
     2     8     1    1
     3     1     2    1
     4     1     3    1
     5     1     4    1
     6     4     5   ar
     7     4     6   ar
@<TRIPOS>MOLECULE
*****
 8 7 0 0 0
SMALL
GASTEIGER

@<TRIPOS>ATOM
      1 C          60.9770   86.9189    8.7941 C.3     1  UNL1        0.0321
      2 C          60.0506   88.0245    9.2054 C.3     1  UNL1        0.0055
      3 C          61.9035   85.8133    8.3828 C.3     1  UNL1        0.0055
      4 C          59.9020   86.3429    7.9210 C.2     1  UNL1        0.0496
      5 O          60.2183   85.2095    6.9907 O.co2   1  UNL1       -0.5492
      6 O          58.5105   86.9001    7.9783 O.co2   1  UNL1       -0.5492
      7 C          62.0139   88.9461   10.0454 C.3     1  UNL1        0.0004
      8 C          62.0522   87.4951    9.6672 C.3     1  UNL1        0.0052
@<TRIPOS>UNITY_ATOM_ATTR
5 1
charge -1
@<TRIPOS>BOND
     1     7     8    1
     2     8     1    1
     3     1     2    1
     4     1     3    1
     5     1     4    1
     6     4     5   ar
     7     4     6   ar
@<TRIPOS>MOLECULE
*****
 8 7 0 0 0
SMALL
GASTEIGER

@<TRIPOS>ATOM
      1 C          62.9817   81.9698   12.1991 C.3     1  UNL1        0.0321
      2 C          63.0971   81.0822   10.9955 C.3     1  UNL1        0.0055
      3 C          62.8664   82.8573   13.4028 C.3     1  UNL1        0.0055
      4 C          63.5323   83.1174   11.4057 C.2     1  UNL1        0.0496
      5 O          64.8237   82.9616   10.6585 O.co2   1  UNL1       -0.5492
      6 O          62.7917   84.4210   11.3593 O.co2   1  UNL1       -0.5492
      7 C          61.3346   81.0566   13.9889 C.3     1  UNL1        0.0004
      8 C          62.4311   80.8220   12.9926 C.3     1  UNL1        0.0052
@<TRIPOS>UNITY_ATOM_ATTR
5 1
charge -1
@<TRIPOS>BOND
     1     7     8    1
     2     8     1    1
     3     1     2    1
     4     1     3    1
     5     1     4    1
     6     4     5   ar
     7     4     6   ar
@<TRIPOS>MOLECULE
*****
 8 7 0 0 0
SMALL
GASTEIGER

@<TRIPOS>ATOM
      1 C          65.9640   91.7722   15.1801 C.3     1  UNL1        0.0321
      2 C          66.6101   92.7232   16.1435 C.3     1  UNL1        0.0055
      3 C          65.3179   90.8212   14.2168 C.3     1  UNL1        0.0055
      4 C          64.6718   91.8876   15.9329 C.2     1  UNL1        0.0496
      5 O          63.4393   91.2064   15.4160 O.co2   1  UNL1       -0.5492
      6 O          64.6119   92.6840   17.2026 O.co2   1  UNL1       -0.5492
      7 C          67.3411   92.1286   13.0060 C.3     1  UNL1        0.0004
      8 C          67.2564   91.6569   14.4274 C.3     1  UNL1        0.0052
@<TRIPOS>UNITY_ATOM_ATTR
5 1
charge -1
@<TRIPOS>BOND
     1     7     8    1
     2     8     1    1
     3     1     2    1
     4     1     3    1
     5     1     4    1
     6     4     5   ar
     7     4     6   ar
