@<TRIPOS>MOLECULE
*****
 26 29 0 0 0
SMALL
GASTEIGER

@<TRIPOS>ATOM
      1 N          65.9009   93.7294    9.8805 N.pl3   1  UNL1       -0.3441
      2 C          65.8824   93.2473   11.3008 C.ar    1  UNL1        0.1035
      3 C          64.8900   92.2064   11.7267 C.ar    1  UNL1        0.0297
      4 C          64.8715   91.7243   13.1470 C.ar    1  UNL1        0.0090
      5 C          65.8456   92.2832   14.1414 C.ar    1  UNL1        0.1366
      6 N          66.0636   92.0036   15.5989 N.ar    1  UNL1       -0.1258
      7 N          67.1908   92.8718   16.0738 N.ar    1  UNL1       -0.0406
      8 N          67.6695   93.6879   14.9098 N.ar    1  UNL1       -0.1095
      9 C          66.8381   93.3241   13.7155 C.ar    1  UNL1        0.1838
     10 N          66.8565   93.8062   12.2952 N.ar    1  UNL1       -0.3249
     11 H          65.2616   93.3627    9.2278 H       1  UNL1        0.1437
     12 H          66.5523   94.4126    9.6010 H       1  UNL1        0.1437
     13 H          67.5079   94.4894   12.0157 H       1  UNL1        0.1686
     14 C          63.8789   90.6833   13.5728 C.3     1  UNL1        0.0757
     15 C          63.2638   89.7718   12.5527 C.ar    1  UNL1        0.0846
     16 C          62.5634   90.1990   11.2969 C.ar    1  UNL1        0.0370
     17 C          62.1078   88.9642   10.5774 C.ar    1  UNL1        0.0967
     18 N          62.5266   87.7739   11.3884 N.ar    1  UNL1       -0.2452
     19 N          63.2410   88.2731   12.6093 N.ar    1  UNL1       -0.1730
     20 C          62.2751   86.3368   11.0399 C.3     1  UNL1        0.1538
     21 C          61.9638   85.9518    9.6241 C.ar    1  UNL1        0.0021
     22 C          60.6102   86.2443    9.0476 C.ar    1  UNL1       -0.0023
     23 C          60.2989   85.8593    7.6316 C.ar    1  UNL1       -0.0003
     24 C          61.3411   85.1817    6.7922 C.ar    1  UNL1       -0.0000
     25 C          62.6946   84.8892    7.3687 C.ar    1  UNL1       -0.0003
     26 C          63.0059   85.2742    8.7846 C.ar    1  UNL1       -0.0023
@<TRIPOS>BOND
     1     1     2    1
     2     2     3   ar
     3     3     4   ar
     4     4    14    1
     5    14    15    1
     6    15    16   ar
     7    16    17   ar
     8    17    18   ar
     9    18    20    1
    10    20    21    1
    11    21    22   ar
    12    22    23   ar
    13    23    24   ar
    14    24    25   ar
    15    25    26   ar
    16    18    19   ar
    17     4     5   ar
    18     5     6   ar
    19     6     7   ar
    20     7     8   ar
    21     8     9   ar
    22     9    10   ar
    23    10     2   ar
    24    19    15   ar
    25     9     5    1
    26    26    21   ar
    27     1    11    1
    28     1    12    1
    29    10    13    1
@<TRIPOS>MOLECULE
*****
 26 29 0 0 0
SMALL
GASTEIGER

@<TRIPOS>ATOM
      1 N          64.1896   85.5113   16.0594 N.pl3   1  UNL1       -0.3441
      2 C          63.7835   84.5687   14.9654 C.ar    1  UNL1        0.1035
      3 C          63.5671   85.0838   13.5735 C.ar    1  UNL1        0.0297
      4 C          63.1610   84.1412   12.4795 C.ar    1  UNL1        0.0090
      5 C          62.9713   82.6835   12.7777 C.ar    1  UNL1        0.1366
      6 N          62.5772   81.5247   11.9106 N.ar    1  UNL1       -0.1258
      7 N          62.5501   80.2933   12.7668 N.ar    1  UNL1       -0.0406
      8 N          62.9274   80.6911   14.1630 N.ar    1  UNL1       -0.1095
      9 C          63.1877   82.1683   14.1698 C.ar    1  UNL1        0.1838
     10 N          63.5938   83.1109   15.2636 N.ar    1  UNL1       -0.3249
     11 H          64.3141   86.4681   15.8637 H       1  UNL1        0.1437
     12 H          64.3316   85.1732   16.9730 H       1  UNL1        0.1437
     13 H          63.7358   82.7728   16.1773 H       1  UNL1        0.1686
     14 C          62.9446   84.6565   11.0875 C.3     1  UNL1        0.0757
     15 C          62.1966   85.9383   10.8700 C.ar    1  UNL1        0.0846
     16 C          61.0426   86.1377    9.9328 C.ar    1  UNL1        0.0370
     17 C          60.6042   87.5685   10.0352 C.ar    1  UNL1        0.0967
     18 N          61.4872   88.2534   11.0357 N.ar    1  UNL1       -0.2452
     19 N          62.4714   87.2459   11.5517 N.ar    1  UNL1       -0.1730
     20 C          61.4012   89.6932   11.4480 C.3     1  UNL1        0.1538
     21 C          62.6536   90.5008   11.6179 C.ar    1  UNL1        0.0021
     22 C          63.2284   91.2480   10.4511 C.ar    1  UNL1       -0.0023
     23 C          64.4809   92.0557   10.6210 C.ar    1  UNL1       -0.0003
     24 C          65.1587   92.1160   11.9578 C.ar    1  UNL1       -0.0000
     25 C          64.5840   91.3688   13.1245 C.ar    1  UNL1       -0.0003
     26 C          63.3316   90.5612   12.9546 C.ar    1  UNL1       -0.0023
@<TRIPOS>BOND
     1     1     2    1
     2     2     3   ar
     3     3     4   ar
     4     4    14    1
     5    14    15    1
     6    15    16   ar
     7    16    17   ar
     8    17    18   ar
     9    18    20    1
    10    20    21    1
    11    21    22   ar
    12    22    23   ar
    13    23    24   ar
    14    24    25   ar
    15    25    26   ar
    16    18    19   ar
    17     4     5   ar
    18     5     6   ar
    19     6     7   ar
    20     7     8   ar
    21     8     9   ar
    22     9    10   ar
    23    10     2   ar
    24    19    15   ar
    25     9     5    1
    26    26    21   ar
    27     1    11    1
    28     1    12    1
    29    10    13    1
@<TRIPOS>MOLECULE
*****
 26 29 0 0 0
SMALL
GASTEIGER

@<TRIPOS>ATOM
      1 N          61.7844   80.0592   13.4583 N.pl3   1  UNL1       -0.3441
      2 C          62.1768   81.5021   13.5781 C.ar    1  UNL1        0.1035
      3 C          62.4409   82.3125   12.3439 C.ar    1  UNL1        0.0297
      4 C          62.8332   83.7554   12.4637 C.ar    1  UNL1        0.0090
      5 C          62.9615   84.3877   13.8179 C.ar    1  UNL1        0.1366
      6 N          63.3289   85.7776   14.2458 N.ar    1  UNL1       -0.1258
      7 N          63.2919   85.8261   15.7445 N.ar    1  UNL1       -0.0406
      8 N          62.9016   84.4663   16.2429 N.ar    1  UNL1       -0.1095
      9 C          62.6973   83.5772   15.0521 C.ar    1  UNL1        0.1838
     10 N          62.3050   82.1344   14.9322 N.ar    1  UNL1       -0.3249
     11 H          61.7003   79.6442   12.5695 H       1  UNL1        0.1437
     12 H          61.6111   79.5273   14.2684 H       1  UNL1        0.1437
     13 H          62.1317   81.6025   15.7423 H       1  UNL1        0.1686
     14 C          63.0973   84.5658   11.2294 C.3     1  UNL1        0.0757
     15 C          62.3076   85.8141   10.9685 C.ar    1  UNL1        0.0846
     16 C          61.1476   85.9428   10.0263 C.ar    1  UNL1        0.0370
     17 C          60.6624   87.3611   10.0796 C.ar    1  UNL1        0.0967
     18 N          61.5224   88.1090   11.0548 N.ar    1  UNL1       -0.2452
     19 N          62.5392   87.1528   11.6042 N.ar    1  UNL1       -0.1730
     20 C          61.3891   89.5585   11.4171 C.3     1  UNL1        0.1538
     21 C          62.6158   90.4032   11.5944 C.ar    1  UNL1        0.0021
     22 C          63.1653   91.1805   10.4350 C.ar    1  UNL1       -0.0023
     23 C          64.3921   92.0252   10.6124 C.ar    1  UNL1       -0.0003
     24 C          65.0694   92.0926   11.9490 C.ar    1  UNL1       -0.0000
     25 C          64.5200   91.3154   13.1083 C.ar    1  UNL1       -0.0003
     26 C          63.2932   90.4707   12.9310 C.ar    1  UNL1       -0.0023
@<TRIPOS>BOND
     1     1     2    1
     2     2     3   ar
     3     3     4   ar
     4     4    14    1
     5    14    15    1
     6    15    16   ar
     7    16    17   ar
     8    17    18   ar
     9    18    20    1
    10    20    21    1
    11    21    22   ar
    12    22    23   ar
    13    23    24   ar
    14    24    25   ar
    15    25    26   ar
    16    18    19   ar
    17     4     5   ar
    18     5     6   ar
    19     6     7   ar
    20     7     8   ar
    21     8     9   ar
    22     9    10   ar
    23    10     2   ar
    24    19    15   ar
    25     9     5    1
    26    26    21   ar
    27     1    11    1
    28     1    12    1
    29    10    13    1
@<TRIPOS>MOLECULE
*****
 26 29 0 0 0
SMALL
GASTEIGER

@<TRIPOS>ATOM
      1 N          65.8992   94.0018    9.6076 N.pl3   1  UNL1       -0.3441
      2 C          65.9198   93.2614   10.9121 C.ar    1  UNL1        0.1035
      3 C          64.7581   92.3965   11.3020 C.ar    1  UNL1        0.0297
      4 C          64.7786   91.6562   12.6065 C.ar    1  UNL1        0.0090
      5 C          65.9610   91.7809   13.5210 C.ar    1  UNL1        0.1366
      6 N          66.2625   91.1756   14.8599 N.ar    1  UNL1       -0.1258
      7 N          67.6107   91.6666   15.2975 N.ar    1  UNL1       -0.0406
      8 N          68.1424   92.5753   14.2290 N.ar    1  UNL1       -0.1095
      9 C          67.1228   92.6460   13.1310 C.ar    1  UNL1        0.1838
     10 N          67.1022   93.3862   11.8266 N.ar    1  UNL1       -0.3249
     11 H          65.1232   93.9199    9.0073 H       1  UNL1        0.1437
     12 H          66.6617   94.5695    9.3517 H       1  UNL1        0.1437
     13 H          67.8647   93.9540   11.5707 H       1  UNL1        0.1686
     14 C          63.6168   90.7911   12.9963 C.3     1  UNL1        0.0757
     15 C          63.0343   89.8267   12.0061 C.ar    1  UNL1        0.0846
     16 C          62.7283   90.1179   10.5669 C.ar    1  UNL1        0.0370
     17 C          62.1605   88.8728    9.9527 C.ar    1  UNL1        0.0967
     18 N          62.1155   87.8121   11.0123 N.ar    1  UNL1       -0.2452
     19 N          62.6556   88.4016   12.2814 N.ar    1  UNL1       -0.1730
     20 C          61.6179   86.4082   10.8341 C.3     1  UNL1        0.1538
     21 C          62.5542   85.2513   11.0201 C.ar    1  UNL1        0.0021
     22 C          62.9379   84.8115   12.4020 C.ar    1  UNL1       -0.0023
     23 C          63.8743   83.6545   12.5879 C.ar    1  UNL1       -0.0003
     24 C          64.4270   82.9373   11.3920 C.ar    1  UNL1       -0.0000
     25 C          64.0433   83.3771   10.0102 C.ar    1  UNL1       -0.0003
     26 C          63.1070   84.5340    9.8243 C.ar    1  UNL1       -0.0023
@<TRIPOS>BOND
     1     1     2    1
     2     2     3   ar
     3     3     4   ar
     4     4    14    1
     5    14    15    1
     6    15    16   ar
     7    16    17   ar
     8    17    18   ar
     9    18    20    1
    10    20    21    1
    11    21    22   ar
    12    22    23   ar
    13    23    24   ar
    14    24    25   ar
    15    25    26   ar
    16    18    19   ar
    17     4     5   ar
    18     5     6   ar
    19     6     7   ar
    20     7     8   ar
    21     8     9   ar
    22     9    10   ar
    23    10     2   ar
    24    19    15   ar
    25     9     5    1
    26    26    21   ar
    27     1    11    1
    28     1    12    1
    29    10    13    1
@<TRIPOS>MOLECULE
*****
 26 29 0 0 0
SMALL
GASTEIGER

@<TRIPOS>ATOM
      1 N          63.5263   90.1559   15.5078 N.pl3   1  UNL1       -0.3441
      2 C          64.0493   90.8124   14.2645 C.ar    1  UNL1        0.1035
      3 C          63.3266   90.6354   12.9622 C.ar    1  UNL1        0.0297
      4 C          63.8495   91.2918   11.7189 C.ar    1  UNL1        0.0090
      5 C          65.0953   92.1252   11.7781 C.ar    1  UNL1        0.1366
      6 N          65.8431   92.8886   10.7254 N.ar    1  UNL1       -0.1258
      7 N          67.0281   93.5373   11.3773 N.ar    1  UNL1       -0.0406
      8 N          67.0126   93.1749   12.8328 N.ar    1  UNL1       -0.1095
      9 C          65.8181   92.3022   13.0805 C.ar    1  UNL1        0.1838
     10 N          65.2951   91.6458   14.3237 N.ar    1  UNL1       -0.3249
     11 H          62.7087   89.6090   15.4690 H       1  UNL1        0.1437
     12 H          64.0007   90.2721   16.3626 H       1  UNL1        0.1437
     13 H          65.7694   91.7619   15.1785 H       1  UNL1        0.1686
     14 C          63.1267   91.1148   10.4164 C.3     1  UNL1        0.0757
     15 C          62.1951   89.9545   10.2274 C.ar    1  UNL1        0.0846
     16 C          60.6975   90.0062   10.2938 C.ar    1  UNL1        0.0370
     17 C          60.1745   88.6223   10.0462 C.ar    1  UNL1        0.0967
     18 N          61.3489   87.7153    9.8267 N.ar    1  UNL1       -0.2452
     19 N          62.5977   88.5386    9.9387 N.ar    1  UNL1       -0.1730
     20 C          61.2856   86.2433    9.5447 C.3     1  UNL1        0.1538
     21 C          62.2270   85.3053   10.2402 C.ar    1  UNL1        0.0021
     22 C          63.1451   84.4321    9.4372 C.ar    1  UNL1       -0.0023
     23 C          64.0866   83.4940   10.1328 C.ar    1  UNL1       -0.0003
     24 C          64.1099   83.4292   11.6312 C.ar    1  UNL1       -0.0000
     25 C          63.1918   84.3024   12.4340 C.ar    1  UNL1       -0.0003
     26 C          62.2504   85.2404   11.7386 C.ar    1  UNL1       -0.0023
@<TRIPOS>BOND
     1     1     2    1
     2     2     3   ar
     3     3     4   ar
     4     4    14    1
     5    14    15    1
     6    15    16   ar
     7    16    17   ar
     8    17    18   ar
     9    18    20    1
    10    20    21    1
    11    21    22   ar
    12    22    23   ar
    13    23    24   ar
    14    24    25   ar
    15    25    26   ar
    16    18    19   ar
    17     4     5   ar
    18     5     6   ar
    19     6     7   ar
    20     7     8   ar
    21     8     9   ar
    22     9    10   ar
    23    10     2   ar
    24    19    15   ar
    25     9     5    1
    26    26    21   ar
    27     1    11    1
    28     1    12    1
    29    10    13    1
@<TRIPOS>MOLECULE
*****
 26 29 0 0 0
SMALL
GASTEIGER

@<TRIPOS>ATOM
      1 N          62.9571   91.4008    9.9893 N.pl3   1  UNL1       -0.3441
      2 C          63.8760   91.3808   11.1749 C.ar    1  UNL1        0.1035
      3 C          63.6111   90.4408   12.3133 C.ar    1  UNL1        0.0297
      4 C          64.5299   90.4207   13.4988 C.ar    1  UNL1        0.0090
      5 C          65.7137   91.3408   13.5458 C.ar    1  UNL1        0.1366
      6 N          66.7863   91.5445   14.5743 N.ar    1  UNL1       -0.1258
      7 N          67.7142   92.6104   14.0715 N.ar    1  UNL1       -0.0406
      8 N          67.2150   93.0655   12.7322 N.ar    1  UNL1       -0.1095
      9 C          65.9786   92.2808   12.4073 C.ar    1  UNL1        0.1838
     10 N          65.0598   92.3008   11.2218 N.ar    1  UNL1       -0.3249
     11 H          62.1802   90.7970    9.9585 H       1  UNL1        0.1437
     12 H          63.1311   92.0178    9.2421 H       1  UNL1        0.1437
     13 H          65.2336   92.9178   10.4746 H       1  UNL1        0.1686
     14 C          64.2649   89.4807   14.6373 C.3     1  UNL1        0.0757
     15 C          64.0906   88.0143   14.3741 C.ar    1  UNL1        0.0846
     16 C          64.4201   86.9024   15.3255 C.ar    1  UNL1        0.0370
     17 C          64.0893   85.6033   14.6525 C.ar    1  UNL1        0.0967
     18 N          63.5554   85.9122   13.2853 N.ar    1  UNL1       -0.2452
     19 N          63.5562   87.4024   13.1132 N.ar    1  UNL1       -0.1730
     20 C          63.1005   84.9075   12.2685 C.3     1  UNL1        0.1538
     21 C          62.4959   85.3696   10.9759 C.ar    1  UNL1        0.0021
     22 C          61.2399   86.1897   10.9862 C.ar    1  UNL1       -0.0023
     23 C          60.6354   86.6517    9.6935 C.ar    1  UNL1       -0.0003
     24 C          61.2867   86.2937    8.3906 C.ar    1  UNL1       -0.0000
     25 C          62.5427   85.4737    8.3804 C.ar    1  UNL1       -0.0003
     26 C          63.1472   85.0116    9.6730 C.ar    1  UNL1       -0.0023
@<TRIPOS>BOND
     1     1     2    1
     2     2     3   ar
     3     3     4   ar
     4     4    14    1
     5    14    15    1
     6    15    16   ar
     7    16    17   ar
     8    17    18   ar
     9    18    20    1
    10    20    21    1
    11    21    22   ar
    12    22    23   ar
    13    23    24   ar
    14    24    25   ar
    15    25    26   ar
    16    18    19   ar
    17     4     5   ar
    18     5     6   ar
    19     6     7   ar
    20     7     8   ar
    21     8     9   ar
    22     9    10   ar
    23    10     2   ar
    24    19    15   ar
    25     9     5    1
    26    26    21   ar
    27     1    11    1
    28     1    12    1
    29    10    13    1
@<TRIPOS>MOLECULE
*****
 26 29 0 0 0
SMALL
GASTEIGER

@<TRIPOS>ATOM
      1 N          66.7482   93.2319   14.3660 N.pl3   1  UNL1       -0.3441
      2 C          65.6213   92.2889   14.0643 C.ar    1  UNL1        0.1035
      3 C          65.0253   91.4573   15.1611 C.ar    1  UNL1        0.0297
      4 C          63.8984   90.5142   14.8595 C.ar    1  UNL1        0.0090
      5 C          63.3676   90.4029   13.4609 C.ar    1  UNL1        0.1366
      6 N          62.2732   89.5670   12.8664 N.ar    1  UNL1       -0.1258
      7 N          62.1929   89.8821   11.4020 N.ar    1  UNL1       -0.0406
      8 N          63.2377   90.9127   11.0916 N.ar    1  UNL1       -0.1095
      9 C          63.9637   91.2346   12.3641 C.ar    1  UNL1        0.1838
     10 N          65.0905   92.1776   12.6658 N.ar    1  UNL1       -0.3249
     11 H          67.0966   93.3050   15.2839 H       1  UNL1        0.1437
     12 H          67.1393   93.7778   13.6460 H       1  UNL1        0.1437
     13 H          65.4817   92.7235   11.9459 H       1  UNL1        0.1686
     14 C          63.3024   89.6826   15.9564 C.3     1  UNL1        0.0757
     15 C          63.5158   88.1980   15.9723 C.ar    1  UNL1        0.0846
     16 C          63.0564   87.2526   17.0425 C.ar    1  UNL1        0.0370
     17 C          63.4828   85.8684   16.6524 C.ar    1  UNL1        0.0967
     18 N          64.2057   85.9583   15.3412 N.ar    1  UNL1       -0.2452
     19 N          64.2261   87.3980   14.9209 N.ar    1  UNL1       -0.1730
     20 C          64.8033   84.8100   14.5833 C.3     1  UNL1        0.1538
     21 C          63.9147   83.7467   14.0092 C.ar    1  UNL1        0.0021
     22 C          62.8885   83.0784   14.8756 C.ar    1  UNL1       -0.0023
     23 C          61.9999   82.0150   14.3015 C.ar    1  UNL1       -0.0003
     24 C          62.1374   81.6199   12.8610 C.ar    1  UNL1       -0.0000
     25 C          63.1635   82.2881   11.9947 C.ar    1  UNL1       -0.0003
     26 C          64.0521   83.3514   12.5688 C.ar    1  UNL1       -0.0023
@<TRIPOS>BOND
     1     1     2    1
     2     2     3   ar
     3     3     4   ar
     4     4    14    1
     5    14    15    1
     6    15    16   ar
     7    16    17   ar
     8    17    18   ar
     9    18    20    1
    10    20    21    1
    11    21    22   ar
    12    22    23   ar
    13    23    24   ar
    14    24    25   ar
    15    25    26   ar
    16    18    19   ar
    17     4     5   ar
    18     5     6   ar
    19     6     7   ar
    20     7     8   ar
    21     8     9   ar
    22     9    10   ar
    23    10     2   ar
    24    19    15   ar
    25     9     5    1
    26    26    21   ar
    27     1    11    1
    28     1    12    1
    29    10    13    1
@<TRIPOS>MOLECULE
*****
 26 29 0 0 0
SMALL
GASTEIGER

@<TRIPOS>ATOM
      1 N          61.7910   89.8510   12.1651 N.pl3   1  UNL1       -0.3441
      2 C          61.4227   88.8249   11.1348 C.ar    1  UNL1        0.1035
      3 C          62.0620   87.4684   11.1654 C.ar    1  UNL1        0.0297
      4 C          61.6938   86.4422   10.1351 C.ar    1  UNL1        0.0090
      5 C          60.6862   86.7728    9.0742 C.ar    1  UNL1        0.1366
      6 N          60.1283   85.9716    7.9353 N.ar    1  UNL1       -0.1258
      7 N          59.1443   86.8331    7.2009 N.ar    1  UNL1       -0.0406
      8 N          59.0939   88.1667    7.8858 N.ar    1  UNL1       -0.1095
      9 C          60.0469   88.1294    9.0436 C.ar    1  UNL1        0.1838
     10 N          60.4152   89.1554   10.0739 N.ar    1  UNL1       -0.3249
     11 H          62.4523   89.6341   12.8615 H       1  UNL1        0.1437
     12 H          61.3714   90.7414   12.1450 H       1  UNL1        0.1437
     13 H          59.9956   90.0458   10.0538 H       1  UNL1        0.1686
     14 C          62.3331   85.0856   10.1657 C.3     1  UNL1        0.0757
     15 C          63.0451   84.6198   11.4010 C.ar    1  UNL1        0.0846
     16 C          63.7792   83.3213   11.5589 C.ar    1  UNL1        0.0370
     17 C          64.3358   83.2697   12.9508 C.ar    1  UNL1        0.0967
     18 N          63.9457   84.5364   13.6532 N.ar    1  UNL1       -0.2452
     19 N          63.1480   85.3708   12.6954 N.ar    1  UNL1       -0.1730
     20 C          64.2925   84.9042   15.0656 C.3     1  UNL1        0.1538
     21 C          63.9329   86.2597   15.5974 C.ar    1  UNL1        0.0021
     22 C          63.2051   86.3843   16.9032 C.ar    1  UNL1       -0.0023
     23 C          62.8456   87.7400   17.4350 C.ar    1  UNL1       -0.0003
     24 C          63.2138   88.9711   16.6612 C.ar    1  UNL1       -0.0000
     25 C          63.9416   88.8465   15.3555 C.ar    1  UNL1       -0.0003
     26 C          64.3012   87.4909   14.8237 C.ar    1  UNL1       -0.0023
@<TRIPOS>BOND
     1     1     2    1
     2     2     3   ar
     3     3     4   ar
     4     4    14    1
     5    14    15    1
     6    15    16   ar
     7    16    17   ar
     8    17    18   ar
     9    18    20    1
    10    20    21    1
    11    21    22   ar
    12    22    23   ar
    13    23    24   ar
    14    24    25   ar
    15    25    26   ar
    16    18    19   ar
    17     4     5   ar
    18     5     6   ar
    19     6     7   ar
    20     7     8   ar
    21     8     9   ar
    22     9    10   ar
    23    10     2   ar
    24    19    15   ar
    25     9     5    1
    26    26    21   ar
    27     1    11    1
    28     1    12    1
    29    10    13    1
@<TRIPOS>MOLECULE
*****
 26 29 0 0 0
SMALL
GASTEIGER

@<TRIPOS>ATOM
      1 N          62.3403   85.8282   10.3854 N.pl3   1  UNL1       -0.3441
      2 C          62.7030   84.9842   11.5713 C.ar    1  UNL1        0.1035
      3 C          63.1751   85.6340   12.8380 C.ar    1  UNL1        0.0297
      4 C          63.5378   84.7901   14.0239 C.ar    1  UNL1        0.0090
      5 C          63.4284   83.2963   13.9429 C.ar    1  UNL1        0.1366
      6 N          63.7134   82.2134   14.9410 N.ar    1  UNL1       -0.1258
      7 N          63.4174   80.8944   14.2910 N.ar    1  UNL1       -0.0406
      8 N          62.9495   81.1620   12.8912 N.ar    1  UNL1       -0.1095
      9 C          62.9563   82.6465   12.6760 C.ar    1  UNL1        0.1838
     10 N          62.5936   83.4904   11.4902 N.ar    1  UNL1       -0.3249
     11 H          62.4120   86.8087   10.4385 H       1  UNL1        0.1437
     12 H          62.0304   85.4017    9.5540 H       1  UNL1        0.1437
     13 H          62.2837   83.0640   10.6588 H       1  UNL1        0.1686
     14 C          64.0099   85.4400   15.2907 C.3     1  UNL1        0.0757
     15 C          63.8454   86.9186   15.4815 C.ar    1  UNL1        0.0846
     16 C          63.1596   87.5878   16.6356 C.ar    1  UNL1        0.0370
     17 C          63.2281   89.0705   16.4190 C.ar    1  UNL1        0.0967
     18 N          63.9562   89.3177   15.1312 N.ar    1  UNL1       -0.2452
     19 N          64.3377   87.9877   14.5517 N.ar    1  UNL1       -0.1730
     20 C          64.2512   90.6593   14.5284 C.3     1  UNL1        0.1538
     21 C          63.9905   90.9005   13.0712 C.ar    1  UNL1        0.0021
     22 C          64.8088   91.9083   12.3195 C.ar    1  UNL1       -0.0023
     23 C          64.5480   92.1495   10.8622 C.ar    1  UNL1       -0.0003
     24 C          63.4690   91.3829   10.1564 C.ar    1  UNL1       -0.0000
     25 C          62.6508   90.3751   10.9080 C.ar    1  UNL1       -0.0003
     26 C          62.9115   90.1340   12.3653 C.ar    1  UNL1       -0.0023
@<TRIPOS>BOND
     1     1     2    1
     2     2     3   ar
     3     3     4   ar
     4     4    14    1
     5    14    15    1
     6    15    16   ar
     7    16    17   ar
     8    17    18   ar
     9    18    20    1
    10    20    21    1
    11    21    22   ar
    12    22    23   ar
    13    23    24   ar
    14    24    25   ar
    15    25    26   ar
    16    18    19   ar
    17     4     5   ar
    18     5     6   ar
    19     6     7   ar
    20     7     8   ar
    21     8     9   ar
    22     9    10   ar
    23    10     2   ar
    24    19    15   ar
    25     9     5    1
    26    26    21   ar
    27     1    11    1
    28     1    12    1
    29    10    13    1
