@<TRIPOS>MOLECULE
*****
 27 29 0 0 0
SMALL
GASTEIGER

@<TRIPOS>ATOM
      1 C          63.5196   88.0139   15.7843 C.ar    1  UNL1        0.0807
      2 C          64.4695   88.5654   14.7629 C.ar    1  UNL1        0.0219
      3 C          64.5583   90.0490   14.9659 C.ar    1  UNL1        0.0084
      4 C          63.6633   90.4143   16.1129 C.ar    1  UNL1        0.0367
      5 S          63.0213   89.1565   16.6187 S.2     1  UNL1       -0.0717
      6 C          65.3952   91.0002   14.1629 C.ar    1  UNL1        0.0049
      7 C          64.7961   91.7220   12.9924 C.ar    1  UNL1        0.0208
      8 C          65.6329   92.6732   12.1894 C.ar    1  UNL1        0.1003
      9 N          67.0691   92.9027   12.5570 N.ar    1  UNL1       -0.2296
     10 C          67.6682   92.1809   13.7275 C.ar    1  UNL1        0.1254
     11 N          69.1042   92.4104   14.0951 N.pl3   1  UNL1       -0.3426
     12 C          66.8313   91.2297   14.5305 C.ar    1  UNL1        0.0339
     13 H          69.6535   93.0347   13.5680 H       1  UNL1        0.1437
     14 H          69.4975   91.9367   14.8633 H       1  UNL1        0.1437
     15 C          64.0828   85.4920   15.5136 C.2     1  UNL1        0.2309
     16 O          65.4143   85.8526   14.9246 O.2     1  UNL1       -0.2744
     17 N          63.1354   86.5727   15.9435 N.am    1  UNL1       -0.2787
     18 H          62.2615   86.3360   16.3301 H       1  UNL1        0.1553
     19 C          63.6986   84.0509   15.6728 C.3     1  UNL1        0.1118
     20 C          63.8360   82.5757   11.9911 C.ar    1  UNL1        0.1384
     21 C          62.7265   81.5679   12.0480 C.ar    1  UNL1        0.0369
     22 C          61.9410   81.3877   13.3131 C.ar    1  UNL1        0.0028
     23 C          62.2650   82.2153   14.5214 C.ar    1  UNL1       -0.0036
     24 C          63.3745   83.2232   14.4645 C.ar    1  UNL1       -0.0101
     25 C          64.1600   83.4033   13.1994 C.ar    1  UNL1        0.0331
     26 C          64.0542   83.5689    9.6003 C.3     1  UNL1        0.2525
     27 O          64.6215   82.7559   10.7260 O.3     1  UNL1       -0.4714
@<TRIPOS>BOND
     1    26    27    1
     2    27    20    1
     3    20    21   ar
     4    21    22   ar
     5    22    23   ar
     6    23    24   ar
     7    24    19    1
     8    19    15    1
     9    15    16    2
    10    15    17   am
    11    17     1    1
    12     1     2   ar
    13     2     3   ar
    14     3     6    1
    15     6     7   ar
    16     7     8   ar
    17     8     9   ar
    18     9    10   ar
    19    10    11    1
    20    10    12   ar
    21     3     4   ar
    22     4     5   ar
    23    24    25   ar
    24    25    20   ar
    25     5     1   ar
    26    12     6   ar
    27    17    18    1
    28    11    13    1
    29    11    14    1
@<TRIPOS>MOLECULE
*****
 27 29 0 0 0
SMALL
GASTEIGER

@<TRIPOS>ATOM
      1 C          64.0710   86.9081   14.9426 C.ar    1  UNL1        0.0807
      2 C          63.9319   85.8430   13.8956 C.ar    1  UNL1        0.0219
      3 C          63.3111   84.6387   14.5391 C.ar    1  UNL1        0.0084
      4 C          63.0666   84.9594   15.9839 C.ar    1  UNL1        0.0367
      5 S          63.5362   86.3620   16.2332 S.2     1  UNL1       -0.0717
      6 C          62.9911   83.3413   13.8575 C.ar    1  UNL1        0.0049
      7 C          62.2150   82.2835   14.5847 C.ar    1  UNL1        0.0208
      8 C          61.8950   80.9863   13.9033 C.ar    1  UNL1        0.1003
      9 N          62.3511   80.7466   12.4944 N.ar    1  UNL1       -0.2296
     10 C          63.1272   81.8044   11.7672 C.ar    1  UNL1        0.1254
     11 N          63.5833   81.5648   10.3585 N.pl3   1  UNL1       -0.3426
     12 C          63.4472   83.1017   12.4488 C.ar    1  UNL1        0.0339
     13 H          63.3732   80.7133    9.9112 H       1  UNL1        0.1437
     14 H          64.0926   82.2590    9.8812 H       1  UNL1        0.1437
     15 C          63.8363   89.4913   15.0916 C.2     1  UNL1        0.2309
     16 O          62.4551   89.3333   15.6551 O.2     1  UNL1       -0.2744
     17 N          64.6442   88.2786   14.7353 N.am    1  UNL1       -0.2787
     18 H          65.5507   88.3823   14.3655 H       1  UNL1        0.1553
     19 C          64.4095   90.8618   14.8843 C.3     1  UNL1        0.1118
     20 C          65.8625   92.9467   11.8361 C.ar    1  UNL1        0.1384
     21 C          65.0017   92.4461   10.7143 C.ar    1  UNL1        0.0369
     22 C          63.9435   91.4174   10.9825 C.ar    1  UNL1        0.0028
     23 C          63.7461   90.8893   12.3725 C.ar    1  UNL1       -0.0036
     24 C          64.6069   91.3899   13.4943 C.ar    1  UNL1       -0.0101
     25 C          65.6651   92.4186   13.2260 C.ar    1  UNL1        0.0331
     26 C          66.5812   95.2178   10.7989 C.3     1  UNL1        0.2525
     27 O          66.9207   93.9755   11.5679 O.3     1  UNL1       -0.4714
@<TRIPOS>BOND
     1    26    27    1
     2    27    20    1
     3    20    21   ar
     4    21    22   ar
     5    22    23   ar
     6    23    24   ar
     7    24    19    1
     8    19    15    1
     9    15    16    2
    10    15    17   am
    11    17     1    1
    12     1     2   ar
    13     2     3   ar
    14     3     6    1
    15     6     7   ar
    16     7     8   ar
    17     8     9   ar
    18     9    10   ar
    19    10    11    1
    20    10    12   ar
    21     3     4   ar
    22     4     5   ar
    23    24    25   ar
    24    25    20   ar
    25     5     1   ar
    26    12     6   ar
    27    17    18    1
    28    11    13    1
    29    11    14    1
@<TRIPOS>MOLECULE
*****
 27 29 0 0 0
SMALL
GASTEIGER

@<TRIPOS>ATOM
      1 C          64.1790   86.8155   14.7817 C.ar    1  UNL1        0.0807
      2 C          64.0385   85.9580   13.5590 C.ar    1  UNL1        0.0219
      3 C          63.7164   84.5628   14.0058 C.ar    1  UNL1        0.0084
      4 C          63.6578   84.5579   15.5047 C.ar    1  UNL1        0.0367
      5 S          63.9437   85.9502   15.9842 S.2     1  UNL1       -0.0717
      6 C          63.4922   83.3801   13.1108 C.ar    1  UNL1        0.0049
      7 C          63.8657   83.4558   11.6601 C.ar    1  UNL1        0.0208
      8 C          63.6415   82.2733   10.7651 C.ar    1  UNL1        0.1003
      9 N          63.0438   81.0146   11.3209 N.ar    1  UNL1       -0.2296
     10 C          62.6703   80.9389   12.7717 C.ar    1  UNL1        0.1254
     11 N          62.0726   79.6804   13.3275 N.pl3   1  UNL1       -0.3426
     12 C          62.8945   82.1216   13.6666 C.ar    1  UNL1        0.0339
     13 H          61.9255   78.9042   12.7401 H       1  UNL1        0.1437
     14 H          61.8274   79.6307   14.2797 H       1  UNL1        0.1437
     15 C          63.6269   89.2297   15.5670 C.2     1  UNL1        0.2309
     16 O          62.4355   88.7131   16.3178 O.2     1  UNL1       -0.2744
     17 N          64.4986   88.2809   14.7989 N.am    1  UNL1       -0.2787
     18 H          65.2806   88.6200   14.3062 H       1  UNL1        0.1553
     19 C          63.9465   90.6951   15.5842 C.3     1  UNL1        0.1118
     20 C          67.1146   92.2613   13.7785 C.ar    1  UNL1        0.1384
     21 C          66.5802   92.4613   12.3913 C.ar    1  UNL1        0.0369
     22 C          65.1679   92.0725   12.0684 C.ar    1  UNL1        0.0028
     23 C          64.2900   91.4838   13.1326 C.ar    1  UNL1       -0.0036
     24 C          64.8244   91.2839   14.5198 C.ar    1  UNL1       -0.0101
     25 C          66.2367   91.6726   14.8428 C.ar    1  UNL1        0.0331
     26 C          68.8747   93.1380   15.4766 C.3     1  UNL1        0.2525
     27 O          68.5269   92.6501   14.1015 O.3     1  UNL1       -0.4714
@<TRIPOS>BOND
     1    26    27    1
     2    27    20    1
     3    20    21   ar
     4    21    22   ar
     5    22    23   ar
     6    23    24   ar
     7    24    19    1
     8    19    15    1
     9    15    16    2
    10    15    17   am
    11    17     1    1
    12     1     2   ar
    13     2     3   ar
    14     3     6    1
    15     6     7   ar
    16     7     8   ar
    17     8     9   ar
    18     9    10   ar
    19    10    11    1
    20    10    12   ar
    21     3     4   ar
    22     4     5   ar
    23    24    25   ar
    24    25    20   ar
    25     5     1   ar
    26    12     6   ar
    27    17    18    1
    28    11    13    1
    29    11    14    1
@<TRIPOS>MOLECULE
*****
 27 29 0 0 0
SMALL
GASTEIGER

@<TRIPOS>ATOM
      1 C          63.3282   88.9286   12.5733 C.ar    1  UNL1        0.0807
      2 C          64.4192   89.2280   13.5581 C.ar    1  UNL1        0.0219
      3 C          64.6578   90.7088   13.5497 C.ar    1  UNL1        0.0084
      4 C          63.7141   91.3248   12.5597 C.ar    1  UNL1        0.0367
      5 S          62.8924   90.2245   11.9562 S.2     1  UNL1       -0.0717
      6 C          65.6634   91.4447   14.3848 C.ar    1  UNL1        0.0049
      7 C          65.2570   92.0320   15.7038 C.ar    1  UNL1        0.0208
      8 C          66.2625   92.7679   16.5389 C.ar    1  UNL1        0.1003
      9 N          67.6746   92.9164   16.0549 N.ar    1  UNL1       -0.2296
     10 C          68.0810   92.3290   14.7359 C.ar    1  UNL1        0.1254
     11 N          69.4929   92.4775   14.2519 N.pl3   1  UNL1       -0.3426
     12 C          67.0754   91.5931   13.9008 C.ar    1  UNL1        0.0339
     13 H          70.1530   92.9604   14.8000 H       1  UNL1        0.1437
     14 H          69.7597   92.0920   13.3862 H       1  UNL1        0.1437
     15 C          62.2761   87.2644   10.8780 C.2     1  UNL1        0.2309
     16 O          62.3389   88.3143    9.8085 O.2     1  UNL1       -0.2744
     17 N          62.7708   87.5716   12.2605 N.am    1  UNL1       -0.2787
     18 H          62.7297   86.8826   12.9624 H       1  UNL1        0.1553
     19 C          61.7188   85.9074   10.5652 C.3     1  UNL1        0.1118
     20 C          63.2626   82.7778   12.4552 C.ar    1  UNL1        0.1384
     21 C          64.1667   82.2237   11.3944 C.ar    1  UNL1        0.0369
     22 C          64.2549   82.8975   10.0571 C.ar    1  UNL1        0.0028
     23 C          63.4390   84.1254    9.7807 C.ar    1  UNL1       -0.0036
     24 C          62.5348   84.6795   10.8416 C.ar    1  UNL1       -0.0101
     25 C          62.4466   84.0057   12.1788 C.ar    1  UNL1        0.0331
     26 C          61.8537   81.5970   14.2912 C.3     1  UNL1        0.2525
     27 O          63.1744   82.1040   13.7924 O.3     1  UNL1       -0.4714
@<TRIPOS>BOND
     1    26    27    1
     2    27    20    1
     3    20    21   ar
     4    21    22   ar
     5    22    23   ar
     6    23    24   ar
     7    24    19    1
     8    19    15    1
     9    15    16    2
    10    15    17   am
    11    17     1    1
    12     1     2   ar
    13     2     3   ar
    14     3     6    1
    15     6     7   ar
    16     7     8   ar
    17     8     9   ar
    18     9    10   ar
    19    10    11    1
    20    10    12   ar
    21     3     4   ar
    22     4     5   ar
    23    24    25   ar
    24    25    20   ar
    25     5     1   ar
    26    12     6   ar
    27    17    18    1
    28    11    13    1
    29    11    14    1
@<TRIPOS>MOLECULE
*****
 27 29 0 0 0
SMALL
GASTEIGER

@<TRIPOS>ATOM
      1 C          63.1757   90.8697   11.5193 C.ar    1  UNL1        0.0807
      2 C          64.0201   91.5781   10.5018 C.ar    1  UNL1        0.0219
      3 C          65.1529   92.2459   11.2235 C.ar    1  UNL1        0.0084
      4 C          65.0085   91.9503   12.6871 C.ar    1  UNL1        0.0367
      5 S          63.7866   91.0997   12.8698 S.2     1  UNL1       -0.0717
      6 C          66.2392   93.0654   10.5925 C.ar    1  UNL1        0.0049
      7 C          67.4870   92.3995   10.0928 C.ar    1  UNL1        0.0208
      8 C          68.5733   93.2190    9.4618 C.ar    1  UNL1        0.1003
      9 N          68.4120   94.7046    9.3305 N.ar    1  UNL1       -0.2296
     10 C          67.1642   95.3705    9.8302 C.ar    1  UNL1        0.1254
     11 N          67.0029   96.8560    9.6989 N.pl3   1  UNL1       -0.3426
     12 C          66.0779   94.5509   10.4612 C.ar    1  UNL1        0.0339
     13 H          67.7159   97.3939    9.2848 H       1  UNL1        0.1437
     14 H          66.1840   97.2931   10.0269 H       1  UNL1        0.1437
     15 C          61.9140   88.5985   11.5188 C.2     1  UNL1        0.2309
     16 O          63.1282   87.9239   12.0850 O.2     1  UNL1       -0.2744
     17 N          61.9378   90.0715   11.2359 N.am    1  UNL1       -0.2787
     18 H          61.1409   90.5143   10.8643 H       1  UNL1        0.1553
     19 C          60.6760   87.8003   11.2355 C.3     1  UNL1        0.1118
     20 C          61.3890   85.6753    7.9604 C.ar    1  UNL1        0.1384
     21 C          60.1098   85.8813    7.2047 C.ar    1  UNL1        0.0369
     22 C          59.0192   86.7270    7.7927 C.ar    1  UNL1        0.0028
     23 C          59.2080   87.3666    9.1362 C.ar    1  UNL1       -0.0036
     24 C          60.4872   87.1606    9.8918 C.ar    1  UNL1       -0.0101
     25 C          61.5778   86.3150    9.3039 C.ar    1  UNL1        0.0331
     26 C          62.4308   84.4436    5.9238 C.3     1  UNL1        0.2525
     27 O          62.4795   84.8297    7.3724 O.3     1  UNL1       -0.4714
@<TRIPOS>BOND
     1    26    27    1
     2    27    20    1
     3    20    21   ar
     4    21    22   ar
     5    22    23   ar
     6    23    24   ar
     7    24    19    1
     8    19    15    1
     9    15    16    2
    10    15    17   am
    11    17     1    1
    12     1     2   ar
    13     2     3   ar
    14     3     6    1
    15     6     7   ar
    16     7     8   ar
    17     8     9   ar
    18     9    10   ar
    19    10    11    1
    20    10    12   ar
    21     3     4   ar
    22     4     5   ar
    23    24    25   ar
    24    25    20   ar
    25     5     1   ar
    26    12     6   ar
    27    17    18    1
    28    11    13    1
    29    11    14    1
@<TRIPOS>MOLECULE
*****
 27 29 0 0 0
SMALL
GASTEIGER

@<TRIPOS>ATOM
      1 C          62.3956   87.5993   11.1679 C.ar    1  UNL1        0.0807
      2 C          62.7852   86.3879   11.9620 C.ar    1  UNL1        0.0219
      3 C          62.4685   85.1736   11.1404 C.ar    1  UNL1        0.0084
      4 C          61.8831   85.6345    9.8385 C.ar    1  UNL1        0.0367
      5 S          61.8381   87.1337    9.8555 S.2     1  UNL1       -0.0717
      6 C          62.6970   83.7485   11.5490 C.ar    1  UNL1        0.0049
      7 C          63.2242   82.7581   10.5534 C.ar    1  UNL1        0.0208
      8 C          63.4528   81.3331   10.9618 C.ar    1  UNL1        0.1003
      9 N          63.1540   80.8982   12.3661 N.ar    1  UNL1       -0.2296
     10 C          62.6268   81.8886   13.3617 C.ar    1  UNL1        0.1254
     11 N          62.3280   81.4538   14.7658 N.pl3   1  UNL1       -0.3426
     12 C          62.3983   83.3137   12.9531 C.ar    1  UNL1        0.0339
     13 H          62.4780   80.5184   15.0340 H       1  UNL1        0.1437
     14 H          61.9820   82.1037   15.4193 H       1  UNL1        0.1437
     15 C          63.2756   89.3495   12.8746 C.2     1  UNL1        0.2309
     16 O          63.8699   88.2465   13.6993 O.2     1  UNL1       -0.2744
     17 N          62.5384   89.0259   11.6088 N.am    1  UNL1       -0.2787
     18 H          62.1484   89.7498   11.0675 H       1  UNL1        0.1553
     19 C          63.4184   90.7761   13.3155 C.3     1  UNL1        0.1118
     20 C          66.6126   93.0072   12.5607 C.ar    1  UNL1        0.1384
     21 C          67.5080   92.6142   13.6981 C.ar    1  UNL1        0.0369
     22 C          67.0403   91.6085   14.7079 C.ar    1  UNL1        0.0028
     23 C          65.6771   90.9958   14.5804 C.ar    1  UNL1       -0.0036
     24 C          64.7817   91.3888   13.4430 C.ar    1  UNL1       -0.0101
     25 C          65.2494   92.3945   12.4332 C.ar    1  UNL1        0.0331
     26 C          66.0977   94.9529   10.9179 C.3     1  UNL1        0.2525
     27 O          67.0803   94.0129   11.5508 O.3     1  UNL1       -0.4714
@<TRIPOS>BOND
     1    26    27    1
     2    27    20    1
     3    20    21   ar
     4    21    22   ar
     5    22    23   ar
     6    23    24   ar
     7    24    19    1
     8    19    15    1
     9    15    16    2
    10    15    17   am
    11    17     1    1
    12     1     2   ar
    13     2     3   ar
    14     3     6    1
    15     6     7   ar
    16     7     8   ar
    17     8     9   ar
    18     9    10   ar
    19    10    11    1
    20    10    12   ar
    21     3     4   ar
    22     4     5   ar
    23    24    25   ar
    24    25    20   ar
    25     5     1   ar
    26    12     6   ar
    27    17    18    1
    28    11    13    1
    29    11    14    1
@<TRIPOS>MOLECULE
*****
 27 29 0 0 0
SMALL
GASTEIGER

@<TRIPOS>ATOM
      1 C          62.7866   87.4088   12.0037 C.ar    1  UNL1        0.0807
      2 C          63.1185   86.0638   12.5788 C.ar    1  UNL1        0.0219
      3 C          62.6282   85.0171   11.6228 C.ar    1  UNL1        0.0084
      4 C          61.9932   85.7152   10.4568 C.ar    1  UNL1        0.0367
      5 S          62.0911   87.1934   10.6923 S.2     1  UNL1       -0.0717
      6 C          62.7512   83.5329   11.8014 C.ar    1  UNL1        0.0049
      7 C          63.1639   82.6700   10.6460 C.ar    1  UNL1        0.0208
      8 C          63.2869   81.1859   10.8245 C.ar    1  UNL1        0.1003
      9 N          62.9972   80.5643   12.1587 N.ar    1  UNL1       -0.2296
     10 C          62.5844   81.4272   13.3142 C.ar    1  UNL1        0.1254
     11 N          62.2947   80.8057   14.6482 N.pl3   1  UNL1       -0.3426
     12 C          62.4614   82.9114   13.1355 C.ar    1  UNL1        0.0339
     13 H          62.3754   79.8316   14.7655 H       1  UNL1        0.1437
     14 H          62.0238   81.3720   15.4067 H       1  UNL1        0.1437
     15 C          63.8341   88.7962   13.9345 C.2     1  UNL1        0.2309
     16 O          64.2630   87.5288   14.6126 O.2     1  UNL1       -0.2744
     17 N          63.0959   88.7362   12.6301 N.am    1  UNL1       -0.2787
     18 H          62.8145   89.5680   12.1850 H       1  UNL1        0.1553
     19 C          64.1434   90.1236   14.5609 C.3     1  UNL1        0.1118
     20 C          67.3236   92.3543   13.7481 C.ar    1  UNL1        0.1384
     21 C          66.8897   93.0121   12.4718 C.ar    1  UNL1        0.0369
     22 C          65.5405   92.7070   11.8918 C.ar    1  UNL1        0.0028
     23 C          64.6250   91.7442   12.5882 C.ar    1  UNL1       -0.0036
     24 C          65.0589   91.0864   13.8645 C.ar    1  UNL1       -0.0101
     25 C          66.4081   91.3915   14.4445 C.ar    1  UNL1        0.0331
     26 C          68.7800   93.3442   15.6583 C.3     1  UNL1        0.2525
     27 O          68.6729   92.6593   14.3281 O.3     1  UNL1       -0.4714
@<TRIPOS>BOND
     1    26    27    1
     2    27    20    1
     3    20    21   ar
     4    21    22   ar
     5    22    23   ar
     6    23    24   ar
     7    24    19    1
     8    19    15    1
     9    15    16    2
    10    15    17   am
    11    17     1    1
    12     1     2   ar
    13     2     3   ar
    14     3     6    1
    15     6     7   ar
    16     7     8   ar
    17     8     9   ar
    18     9    10   ar
    19    10    11    1
    20    10    12   ar
    21     3     4   ar
    22     4     5   ar
    23    24    25   ar
    24    25    20   ar
    25     5     1   ar
    26    12     6   ar
    27    17    18    1
    28    11    13    1
    29    11    14    1
@<TRIPOS>MOLECULE
*****
 27 29 0 0 0
SMALL
GASTEIGER

@<TRIPOS>ATOM
      1 C          64.0156   86.7989   14.4182 C.ar    1  UNL1        0.0807
      2 C          63.7170   85.9259   13.2356 C.ar    1  UNL1        0.0219
      3 C          63.8129   84.4961   13.6790 C.ar    1  UNL1        0.0084
      4 C          64.1708   84.4855   15.1357 C.ar    1  UNL1        0.0367
      5 S          64.2961   85.9088   15.5925 S.2     1  UNL1       -0.0717
      6 C          63.5900   83.2888   12.8171 C.ar    1  UNL1        0.0049
      7 C          63.9659   83.3240   11.3654 C.ar    1  UNL1        0.0208
      8 C          63.7431   82.1168   10.5035 C.ar    1  UNL1        0.1003
      9 N          63.1442   80.8743   11.0933 N.ar    1  UNL1       -0.2296
     10 C          62.7683   80.8392   12.5450 C.ar    1  UNL1        0.1254
     11 N          62.1695   79.5968   13.1348 N.pl3   1  UNL1       -0.3426
     12 C          62.9912   82.0465   13.4069 C.ar    1  UNL1        0.0339
     13 H          62.0232   78.8045   12.5691 H       1  UNL1        0.1437
     14 H          61.9227   79.5737   14.0876 H       1  UNL1        0.1437
     15 C          63.5190   89.0597   13.2382 C.2     1  UNL1        0.2309
     16 O          62.9915   88.3207   12.0443 O.2     1  UNL1       -0.2744
     17 N          64.0311   88.2988   14.4252 N.am    1  UNL1       -0.2787
     18 H          64.3773   88.7839   15.2088 H       1  UNL1        0.1553
     19 C          63.5345   90.5596   13.2452 C.3     1  UNL1        0.1118
     20 C          66.5490   93.0611   12.6087 C.ar    1  UNL1        0.1384
     21 C          67.4169   92.7672   13.7963 C.ar    1  UNL1        0.0369
     22 C          66.9906   91.7374   14.8002 C.ar    1  UNL1        0.0028
     23 C          65.6965   91.0016   14.6165 C.ar    1  UNL1       -0.0036
     24 C          64.8287   91.2955   13.4290 C.ar    1  UNL1       -0.0101
     25 C          65.2549   92.3253   12.4250 C.ar    1  UNL1        0.0331
     26 C          65.9448   94.8207   10.7952 C.3     1  UNL1        0.2525
     27 O          66.9753   94.0909   11.6048 O.3     1  UNL1       -0.4714
@<TRIPOS>BOND
     1    26    27    1
     2    27    20    1
     3    20    21   ar
     4    21    22   ar
     5    22    23   ar
     6    23    24   ar
     7    24    19    1
     8    19    15    1
     9    15    16    2
    10    15    17   am
    11    17     1    1
    12     1     2   ar
    13     2     3   ar
    14     3     6    1
    15     6     7   ar
    16     7     8   ar
    17     8     9   ar
    18     9    10   ar
    19    10    11    1
    20    10    12   ar
    21     3     4   ar
    22     4     5   ar
    23    24    25   ar
    24    25    20   ar
    25     5     1   ar
    26    12     6   ar
    27    17    18    1
    28    11    13    1
    29    11    14    1
@<TRIPOS>MOLECULE
*****
 27 29 0 0 0
SMALL
GASTEIGER

@<TRIPOS>ATOM
      1 C          63.1752   90.7489   11.5296 C.ar    1  UNL1        0.0807
      2 C          63.9244   90.7473   12.8290 C.ar    1  UNL1        0.0219
      3 C          65.0681   91.7100   12.7058 C.ar    1  UNL1        0.0084
      4 C          65.0257   92.3067   11.3301 C.ar    1  UNL1        0.0367
      5 S          63.8558   91.7126   10.6032 S.2     1  UNL1       -0.0717
      6 C          66.0771   92.0215   13.7711 C.ar    1  UNL1        0.0049
      7 C          65.6234   92.3234   15.1686 C.ar    1  UNL1        0.0208
      8 C          66.6323   92.6348   16.2339 C.ar    1  UNL1        0.1003
      9 N          68.0952   92.6444   15.9018 N.ar    1  UNL1       -0.2296
     10 C          68.5489   92.3424   14.5043 C.ar    1  UNL1        0.1254
     11 N          70.0116   92.3520   14.1721 N.pl3   1  UNL1       -0.3426
     12 C          67.5398   92.0310   13.4390 C.ar    1  UNL1        0.0339
     13 H          70.6738   92.5564   14.8714 H       1  UNL1        0.1437
     14 H          70.3094   92.1538   13.2549 H       1  UNL1        0.1437
     15 C          61.9335   88.4668   11.5391 C.2     1  UNL1        0.2309
     16 O          63.1245   87.8215   12.1834 O.2     1  UNL1       -0.2744
     17 N          61.9588   89.9305   11.2122 N.am    1  UNL1       -0.2787
     18 H          61.1772   90.3541   10.7893 H       1  UNL1        0.1553
     19 C          60.7172   87.6484   11.2218 C.3     1  UNL1        0.1118
     20 C          61.4379   85.6546    7.8669 C.ar    1  UNL1        0.1384
     21 C          60.1774   85.9251    7.1000 C.ar    1  UNL1        0.0369
     22 C          59.0969   86.7700    7.7071 C.ar    1  UNL1        0.0028
     23 C          59.2768   87.3444    9.0810 C.ar    1  UNL1       -0.0036
     24 C          60.5372   87.0739    9.8478 C.ar    1  UNL1       -0.0101
     25 C          61.6178   86.2290    9.2408 C.ar    1  UNL1        0.0331
     26 C          62.3999   84.3486    5.8374 C.3     1  UNL1        0.2525
     27 O          62.5184   84.8096    7.2598 O.3     1  UNL1       -0.4714
@<TRIPOS>BOND
     1    26    27    1
     2    27    20    1
     3    20    21   ar
     4    21    22   ar
     5    22    23   ar
     6    23    24   ar
     7    24    19    1
     8    19    15    1
     9    15    16    2
    10    15    17   am
    11    17     1    1
    12     1     2   ar
    13     2     3   ar
    14     3     6    1
    15     6     7   ar
    16     7     8   ar
    17     8     9   ar
    18     9    10   ar
    19    10    11    1
    20    10    12   ar
    21     3     4   ar
    22     4     5   ar
    23    24    25   ar
    24    25    20   ar
    25     5     1   ar
    26    12     6   ar
    27    17    18    1
    28    11    13    1
    29    11    14    1
