@<TRIPOS>MOLECULE
*****
 23 25 0 0 0
SMALL
GASTEIGER

@<TRIPOS>ATOM
      1 C          66.0048   93.0468   13.1543 C.2     1  UNL1        0.2526
      2 O          66.5129   94.2266   12.3798 O.2     1  UNL1       -0.2723
      3 N          65.0520   92.0823   12.5124 N.am    1  UNL1       -0.2741
      4 C          64.5439   90.9024   13.2869 C.3     1  UNL1        0.1149
      5 C          63.5912   89.9379   12.6451 C.3     1  UNL1        0.1121
      6 N          63.1465   90.1533   11.2288 N.pl3   1  UNL1       -0.3071
      7 C          63.6545   91.3330   10.4544 C.3     1  UNL1        0.1121
      8 C          64.6073   92.2976   11.0962 C.3     1  UNL1        0.1149
      9 C          62.1936   89.1887   10.5870 C.2     1  UNL1        0.0295
     10 C          62.1006   87.7790   11.0909 C.2     1  UNL1        0.0120
     11 C          61.1478   86.8144   10.4491 C.2     1  UNL1        0.0216
     12 C          60.2880   87.2597    9.3034 C.2     1  UNL1        0.1008
     13 N          59.2640   86.5389    8.4777 N.2     1  UNL1       -0.1482
     14 N          58.7242   87.5033    7.4635 N.2     1  UNL1       -0.1467
     15 C          59.4146   88.8200    7.6624 C.2     1  UNL1        0.1198
     16 C          60.3811   88.6695    8.7996 C.2     1  UNL1        0.0238
     17 C          61.3339   89.6340    9.4414 C.3     1  UNL1        0.0705
     18 C          66.4495   92.8314   14.5705 C.3     1  UNL1        0.1867
     19 O          65.5173   93.1396   15.7044 O.3     1  UNL1       -0.3758
     20 H          64.6751   93.4661   15.3510 H       1  UNL1        0.2110
     21 C          68.6765   91.7897   13.7307 C.3     1  UNL1        0.0030
     22 C          67.8266   92.3078   14.8528 C.3     1  UNL1        0.0359
     23 C          68.3537   92.3024   16.2570 C.3     1  UNL1        0.0030
@<TRIPOS>BOND
     1    21    22    1
     2    22    23    1
     3    22    18    1
     4    18    19    1
     5    18     1    1
     6     1     2    2
     7     1     3   am
     8     3     4    1
     9     4     5    1
    10     5     6    1
    11     6     9    1
    12     9    10    2
    13    10    11    1
    14    11    12    2
    15    12    13    1
    16    13    14    2
    17    14    15    1
    18    15    16    2
    19    16    17    1
    20     6     7    1
    21     7     8    1
    22     8     3    1
    23    17     9    1
    24    16    12    1
    25    19    20    1
@<TRIPOS>MOLECULE
*****
 23 25 0 0 0
SMALL
GASTEIGER

@<TRIPOS>ATOM
      1 C          63.2005   90.4172   12.4536 C.2     1  UNL1        0.2526
      2 O          62.5134   91.2425   11.4062 O.2     1  UNL1       -0.2723
      3 N          63.1497   88.9199   12.3812 N.am    1  UNL1       -0.2741
      4 C          63.8368   88.0946   13.4286 C.3     1  UNL1        0.1149
      5 C          63.7861   86.5973   13.3562 C.3     1  UNL1        0.1121
      6 N          63.0482   85.9251   12.2365 N.pl3   1  UNL1       -0.3071
      7 C          62.3612   86.7502   11.1892 C.3     1  UNL1        0.1121
      8 C          62.4119   88.2477   11.2615 C.3     1  UNL1        0.1149
      9 C          62.9975   84.4276   12.1642 C.2     1  UNL1        0.0295
     10 C          63.5304   83.7166   10.9558 C.2     1  UNL1        0.0120
     11 C          63.4797   82.2192   10.8835 C.2     1  UNL1        0.0216
     12 C          62.8960   81.4329   12.0198 C.2     1  UNL1        0.1008
     13 N          62.7124   79.9591   12.2305 N.2     1  UNL1       -0.1482
     14 N          62.0659   79.7594   13.5693 N.2     1  UNL1       -0.1467
     15 C          61.8501   81.1097   14.1859 C.2     1  UNL1        0.1198
     16 C          62.3631   82.1439   13.2282 C.2     1  UNL1        0.0238
     17 C          62.4138   83.6413   13.3005 C.3     1  UNL1        0.0705
     18 C          63.9383   91.0894   13.5733 C.3     1  UNL1        0.1867
     19 O          63.3023   91.2070   14.9266 O.3     1  UNL1       -0.3758
     20 H          62.4218   90.8005   14.9064 H       1  UNL1        0.2110
     21 C          66.3924   91.4255   14.3573 C.3     1  UNL1        0.0030
     22 C          65.3124   91.6440   13.3396 C.3     1  UNL1        0.0359
     23 C          65.6063   92.4171   12.0882 C.3     1  UNL1        0.0030
@<TRIPOS>BOND
     1    21    22    1
     2    22    23    1
     3    22    18    1
     4    18    19    1
     5    18     1    1
     6     1     2    2
     7     1     3   am
     8     3     4    1
     9     4     5    1
    10     5     6    1
    11     6     9    1
    12     9    10    2
    13    10    11    1
    14    11    12    2
    15    12    13    1
    16    13    14    2
    17    14    15    1
    18    15    16    2
    19    16    17    1
    20     6     7    1
    21     7     8    1
    22     8     3    1
    23    17     9    1
    24    16    12    1
    25    19    20    1
@<TRIPOS>MOLECULE
*****
 23 25 0 0 0
SMALL
GASTEIGER

@<TRIPOS>ATOM
      1 C          65.4350   92.1741   14.9675 C.2     1  UNL1        0.2526
      2 O          65.1895   91.9288   16.4269 O.2     1  UNL1       -0.2723
      3 N          64.5784   91.4974   13.9388 N.am    1  UNL1       -0.2741
      4 C          64.8239   91.7427   12.4795 C.3     1  UNL1        0.1149
      5 C          63.9672   91.0660   11.4507 C.3     1  UNL1        0.1121
      6 N          62.8651   90.1442   11.8813 N.pl3   1  UNL1       -0.3071
      7 C          62.6196   89.8989   13.3405 C.3     1  UNL1        0.1121
      8 C          63.4762   90.5756   14.3694 C.3     1  UNL1        0.1149
      9 C          62.0084   89.4675   10.8525 C.2     1  UNL1        0.0295
     10 C          60.8019   90.1686   10.3025 C.2     1  UNL1        0.0120
     11 C          59.9453   89.4920    9.2736 C.2     1  UNL1        0.0216
     12 C          60.2953   88.1142    8.7949 C.2     1  UNL1        0.1008
     13 N          59.6443   87.2028    7.7972 N.2     1  UNL1       -0.1482
     14 N          60.4485   85.9384    7.7306 N.2     1  UNL1       -0.1467
     15 C          61.5966   86.0684    8.6872 C.2     1  UNL1        0.1198
     16 C          61.5019   87.4131    9.3450 C.2     1  UNL1        0.0238
     17 C          62.3585   88.0898   10.3738 C.3     1  UNL1        0.0705
     18 C          66.5372   93.0959   14.5370 C.3     1  UNL1        0.1867
     19 O          66.2151   94.4876   14.0794 O.3     1  UNL1       -0.3758
     20 H          65.2564   94.6285   14.1228 H       1  UNL1        0.2110
     21 C          68.5048   91.8134   13.4262 C.3     1  UNL1        0.0030
     22 C          67.9615   92.6260   14.5640 C.3     1  UNL1        0.0359
     23 C          68.8423   92.9686   15.7286 C.3     1  UNL1        0.0030
@<TRIPOS>BOND
     1    21    22    1
     2    22    23    1
     3    22    18    1
     4    18    19    1
     5    18     1    1
     6     1     2    2
     7     1     3   am
     8     3     4    1
     9     4     5    1
    10     5     6    1
    11     6     9    1
    12     9    10    2
    13    10    11    1
    14    11    12    2
    15    12    13    1
    16    13    14    2
    17    14    15    1
    18    15    16    2
    19    16    17    1
    20     6     7    1
    21     7     8    1
    22     8     3    1
    23    17     9    1
    24    16    12    1
    25    19    20    1
@<TRIPOS>MOLECULE
*****
 23 25 0 0 0
SMALL
GASTEIGER

@<TRIPOS>ATOM
      1 C          64.4230   91.0388   13.8262 C.2     1  UNL1        0.2526
      2 O          64.0440   91.9161   12.6700 O.2     1  UNL1       -0.2723
      3 N          64.1523   89.5645   13.7694 N.am    1  UNL1       -0.2741
      4 C          64.5314   88.6873   14.9255 C.3     1  UNL1        0.1149
      5 C          64.2607   87.2130   14.8687 C.3     1  UNL1        0.1121
      6 N          63.6110   86.6160   13.6556 N.pl3   1  UNL1       -0.3071
      7 C          63.2320   87.4932   12.4995 C.3     1  UNL1        0.1121
      8 C          63.5027   88.9675   12.5563 C.3     1  UNL1        0.1149
      9 C          63.3404   85.1416   13.5988 C.2     1  UNL1        0.0295
     10 C          62.9073   84.4104   14.8348 C.2     1  UNL1        0.0120
     11 C          62.6367   82.9361   14.7780 C.2     1  UNL1        0.0216
     12 C          62.7992   82.1931   13.4851 C.2     1  UNL1        0.1008
     13 N          62.6059   80.7496   13.1259 N.2     1  UNL1       -0.1482
     14 N          62.9196   80.5887   11.6680 N.2     1  UNL1       -0.1467
     15 C          63.3067   81.9328   11.1260 C.2     1  UNL1        0.1198
     16 C          63.2322   82.9244   12.2491 C.2     1  UNL1        0.0238
     17 C          63.5029   84.3986   12.3060 C.3     1  UNL1        0.0705
     18 C          65.0727   91.6358   15.0393 C.3     1  UNL1        0.1867
     19 O          64.2747   91.8421   16.2925 O.3     1  UNL1       -0.3758
     20 H          63.3645   91.5389   16.1498 H       1  UNL1        0.2110
     21 C          67.3560   91.6858   13.8008 C.3     1  UNL1        0.0030
     22 C          66.5204   92.0265   14.9990 C.3     1  UNL1        0.0359
     23 C          67.1323   92.7578   16.1568 C.3     1  UNL1        0.0030
@<TRIPOS>BOND
     1    21    22    1
     2    22    23    1
     3    22    18    1
     4    18    19    1
     5    18     1    1
     6     1     2    2
     7     1     3   am
     8     3     4    1
     9     4     5    1
    10     5     6    1
    11     6     9    1
    12     9    10    2
    13    10    11    1
    14    11    12    2
    15    12    13    1
    16    13    14    2
    17    14    15    1
    18    15    16    2
    19    16    17    1
    20     6     7    1
    21     7     8    1
    22     8     3    1
    23    17     9    1
    24    16    12    1
    25    19    20    1
@<TRIPOS>MOLECULE
*****
 23 25 0 0 0
SMALL
GASTEIGER

@<TRIPOS>ATOM
      1 C          66.1879   94.0459   12.3633 C.2     1  UNL1        0.2526
      2 O          66.8291   95.1478   13.1537 O.2     1  UNL1       -0.2723
      3 N          65.6691   92.8248   13.0632 N.am    1  UNL1       -0.2741
      4 C          65.0279   91.7229   12.2728 C.3     1  UNL1        0.1149
      5 C          64.5092   90.5018   12.9726 C.3     1  UNL1        0.1121
      6 N          64.6317   90.3826   14.4629 N.pl3   1  UNL1       -0.3071
      7 C          65.2729   91.4844   15.2532 C.3     1  UNL1        0.1121
      8 C          65.7917   92.7056   14.5534 C.3     1  UNL1        0.1149
      9 C          64.1129   89.1614   15.1627 C.2     1  UNL1        0.0295
     10 C          63.3510   89.2999   16.4472 C.2     1  UNL1        0.0120
     11 C          62.8322   88.0787   17.1470 C.2     1  UNL1        0.0216
     12 C          63.0755   86.7190   16.5622 C.2     1  UNL1        0.1008
     13 N          62.6888   85.3447   17.0223 N.2     1  UNL1       -0.1482
     14 N          63.2118   84.3568   16.0220 N.2     1  UNL1       -0.1467
     15 C          63.9218   85.1206   14.9438 C.2     1  UNL1        0.1198
     16 C          63.8375   86.5805   15.2776 C.2     1  UNL1        0.0238
     17 C          64.3562   87.8017   14.5779 C.3     1  UNL1        0.0705
     18 C          66.0654   94.1651   10.8731 C.3     1  UNL1        0.1867
     19 O          64.8142   94.7270   10.2660 O.3     1  UNL1       -0.3758
     20 H          64.1903   94.9620   10.9705 H       1  UNL1        0.2110
     21 C          67.7524   92.3366   10.1245 C.3     1  UNL1        0.0030
     22 C          67.1942   93.7223    9.9900 C.3     1  UNL1        0.0359
     23 C          67.7648   94.6652    8.9726 C.3     1  UNL1        0.0030
@<TRIPOS>BOND
     1    21    22    1
     2    22    23    1
     3    22    18    1
     4    18    19    1
     5    18     1    1
     6     1     2    2
     7     1     3   am
     8     3     4    1
     9     4     5    1
    10     5     6    1
    11     6     9    1
    12     9    10    2
    13    10    11    1
    14    11    12    2
    15    12    13    1
    16    13    14    2
    17    14    15    1
    18    15    16    2
    19    16    17    1
    20     6     7    1
    21     7     8    1
    22     8     3    1
    23    17     9    1
    24    16    12    1
    25    19    20    1
@<TRIPOS>MOLECULE
*****
 23 25 0 0 0
SMALL
GASTEIGER

@<TRIPOS>ATOM
      1 C          65.7844   93.2161   12.6815 C.2     1  UNL1        0.2526
      2 O          66.2061   93.1173   14.1176 O.2     1  UNL1       -0.2723
      3 N          64.8452   92.1991   12.1039 N.am    1  UNL1       -0.2741
      4 C          64.4235   92.2979   10.6678 C.3     1  UNL1        0.1149
      5 C          63.4844   91.2809   10.0902 C.3     1  UNL1        0.1121
      6 N          62.9669   90.1651   10.9487 N.pl3   1  UNL1       -0.3071
      7 C          63.3885   90.0662   12.3848 C.3     1  UNL1        0.1121
      8 C          64.3278   91.0833   12.9624 C.3     1  UNL1        0.1149
      9 C          62.0277   89.1480   10.3711 C.2     1  UNL1        0.0295
     10 C          61.9644   87.7682   10.9557 C.2     1  UNL1        0.0120
     11 C          61.0252   86.7512   10.3780 C.2     1  UNL1        0.0216
     12 C          60.1493   87.1142    9.2157 C.2     1  UNL1        0.1008
     13 N          59.1331   86.3286    8.4410 N.2     1  UNL1       -0.1482
     14 N          58.5683   87.2231    7.3775 N.2     1  UNL1       -0.1467
     15 C          59.2355   88.5614    7.4950 C.2     1  UNL1        0.1198
     16 C          60.2126   88.4941    8.6311 C.2     1  UNL1        0.0238
     17 C          61.1518   89.5110    9.2088 C.3     1  UNL1        0.0705
     18 C          66.3019   94.3320   11.8230 C.3     1  UNL1        0.1867
     19 O          65.9853   95.7558   12.1724 O.3     1  UNL1       -0.3758
     20 H          65.4412   95.7785   12.9751 H       1  UNL1        0.2110
     21 C          67.2443   95.0248    9.5031 C.3     1  UNL1        0.0030
     22 C          67.1361   94.0238   10.6149 C.3     1  UNL1        0.0359
     23 C          67.8619   92.7147   10.5188 C.3     1  UNL1        0.0030
@<TRIPOS>BOND
     1    21    22    1
     2    22    23    1
     3    22    18    1
     4    18    19    1
     5    18     1    1
     6     1     2    2
     7     1     3   am
     8     3     4    1
     9     4     5    1
    10     5     6    1
    11     6     9    1
    12     9    10    2
    13    10    11    1
    14    11    12    2
    15    12    13    1
    16    13    14    2
    17    14    15    1
    18    15    16    2
    19    16    17    1
    20     6     7    1
    21     7     8    1
    22     8     3    1
    23    17     9    1
    24    16    12    1
    25    19    20    1
@<TRIPOS>MOLECULE
*****
 23 25 0 0 0
SMALL
GASTEIGER

@<TRIPOS>ATOM
      1 C          61.0892   89.0157    9.9193 C.2     1  UNL1        0.2526
      2 O          60.6087   89.5255    8.5929 O.2     1  UNL1       -0.2723
      3 N          62.1498   89.7641   10.6709 N.am    1  UNL1       -0.2741
      4 C          62.6303   89.2543   11.9973 C.3     1  UNL1        0.1149
      5 C          63.6909   90.0027   12.7489 C.3     1  UNL1        0.1121
      6 N          64.2710   91.2610   12.1742 N.pl3   1  UNL1       -0.3071
      7 C          63.7905   91.7708   10.8479 C.3     1  UNL1        0.1121
      8 C          62.7299   91.0224   10.0962 C.3     1  UNL1        0.1149
      9 C          65.3316   92.0094   12.9259 C.2     1  UNL1        0.0295
     10 C          65.6684   93.4200   12.5430 C.2     1  UNL1        0.0120
     11 C          66.7291   94.1684   13.2948 C.2     1  UNL1        0.0216
     12 C          67.4528   93.5060   14.4294 C.2     1  UNL1        0.1008
     13 N          68.5367   93.9892   15.3468 N.2     1  UNL1       -0.1482
     14 N          68.8698   92.8772   16.2968 N.2     1  UNL1       -0.1467
     15 C          67.9918   91.7067   15.9664 C.2     1  UNL1        0.1198
     16 C          67.1160   92.0954   14.8123 C.2     1  UNL1        0.0238
     17 C          66.0554   91.3471   14.0606 C.3     1  UNL1        0.0705
     18 C          60.5091   87.7574   10.4940 C.3     1  UNL1        0.1867
     19 O          59.5141   87.8336   11.6137 O.3     1  UNL1       -0.3758
     20 H          59.3577   88.7626   11.8447 H       1  UNL1        0.2110
     21 C          60.5084   86.0155    8.5664 C.3     1  UNL1        0.0030
     22 C          60.9242   86.4230    9.9488 C.3     1  UNL1        0.0359
     23 C          61.7550   85.4963   10.7859 C.3     1  UNL1        0.0030
@<TRIPOS>BOND
     1    21    22    1
     2    22    23    1
     3    22    18    1
     4    18    19    1
     5    18     1    1
     6     1     2    2
     7     1     3   am
     8     3     4    1
     9     4     5    1
    10     5     6    1
    11     6     9    1
    12     9    10    2
    13    10    11    1
    14    11    12    2
    15    12    13    1
    16    13    14    2
    17    14    15    1
    18    15    16    2
    19    16    17    1
    20     6     7    1
    21     7     8    1
    22     8     3    1
    23    17     9    1
    24    16    12    1
    25    19    20    1
@<TRIPOS>MOLECULE
*****
 23 25 0 0 0
SMALL
GASTEIGER

@<TRIPOS>ATOM
      1 C          61.9342   86.2881   11.2164 C.2     1  UNL1        0.2526
      2 O          62.0247   84.8453   11.6166 O.2     1  UNL1       -0.2723
      3 N          62.6654   87.3328   12.0064 N.am    1  UNL1       -0.2741
      4 C          62.5749   88.7756   11.6062 C.3     1  UNL1        0.1149
      5 C          63.3060   89.8203   12.3962 C.3     1  UNL1        0.1121
      6 N          64.1276   89.4222   13.5863 N.pl3   1  UNL1       -0.3071
      7 C          64.2181   87.9795   13.9865 C.3     1  UNL1        0.1121
      8 C          63.4870   86.9347   13.1965 C.3     1  UNL1        0.1149
      9 C          64.8587   90.4670   14.3763 C.2     1  UNL1        0.0295
     10 C          64.2101   91.0901   15.5767 C.2     1  UNL1        0.0120
     11 C          64.9413   92.1349   16.3666 C.2     1  UNL1        0.0216
     12 C          66.3210   92.5565   15.9561 C.2     1  UNL1        0.1008
     13 N          67.2796   93.5542   16.5353 N.2     1  UNL1       -0.1482
     14 N          68.5207   93.5477   15.6929 N.2     1  UNL1       -0.1467
     15 C          68.3291   92.5460   14.5930 C.2     1  UNL1        0.1198
     16 C          66.9696   91.9334   14.7556 C.2     1  UNL1        0.0238
     17 C          66.2384   90.8886   13.9657 C.3     1  UNL1        0.0705
     18 C          61.1126   86.6862   10.0263 C.3     1  UNL1        0.1867
     19 O          60.0008   87.6810   10.1813 O.3     1  UNL1       -0.3758
     20 H          59.9482   87.9654   11.1072 H       1  UNL1        0.2110
     21 C          60.3159   85.9960    7.6517 C.3     1  UNL1        0.0030
     22 C          61.4030   86.0894    8.6810 C.3     1  UNL1        0.0359
     23 C          62.7802   85.5862    8.3652 C.3     1  UNL1        0.0030
@<TRIPOS>BOND
     1    21    22    1
     2    22    23    1
     3    22    18    1
     4    18    19    1
     5    18     1    1
     6     1     2    2
     7     1     3   am
     8     3     4    1
     9     4     5    1
    10     5     6    1
    11     6     9    1
    12     9    10    2
    13    10    11    1
    14    11    12    2
    15    12    13    1
    16    13    14    2
    17    14    15    1
    18    15    16    2
    19    16    17    1
    20     6     7    1
    21     7     8    1
    22     8     3    1
    23    17     9    1
    24    16    12    1
    25    19    20    1
@<TRIPOS>MOLECULE
*****
 23 25 0 0 0
SMALL
GASTEIGER

@<TRIPOS>ATOM
      1 C          60.8288   88.2387    8.9889 C.2     1  UNL1        0.2526
      2 O          60.1446   89.0936    7.9636 O.2     1  UNL1       -0.2723
      3 N          61.6256   88.8778   10.0873 N.am    1  UNL1       -0.2741
      4 C          62.3097   88.0229   11.1126 C.3     1  UNL1        0.1149
      5 C          63.1066   88.6620   12.2110 C.3     1  UNL1        0.1121
      6 N          63.2193   90.1559   12.2842 N.pl3   1  UNL1       -0.3071
      7 C          62.5352   91.0108   11.2591 C.3     1  UNL1        0.1121
      8 C          61.7383   90.3717   10.1605 C.3     1  UNL1        0.1149
      9 C          64.0162   90.7950   13.3828 C.2     1  UNL1        0.0295
     10 C          63.6106   90.6013   14.8138 C.2     1  UNL1        0.0120
     11 C          64.4075   91.2403   15.9123 C.2     1  UNL1        0.0216
     12 C          65.6100   92.0730   15.5796 C.2     1  UNL1        0.1008
     13 N          66.5824   92.8213   16.4424 N.2     1  UNL1       -0.1482
     14 N          67.5891   93.4774   15.5445 N.2     1  UNL1       -0.1467
     15 C          67.2387   93.1346   14.1268 C.2     1  UNL1        0.1198
     16 C          66.0155   92.2667   14.1486 C.2     1  UNL1        0.0238
     17 C          65.2186   91.6276   13.0501 C.3     1  UNL1        0.0705
     18 C          60.7161   86.7448    8.9157 C.3     1  UNL1        0.1867
     19 O          59.4547   86.1118    8.4076 O.3     1  UNL1       -0.3758
     20 H          58.8181   86.8043    8.1707 H       1  UNL1        0.2110
     21 C          61.8527   85.2469   10.7086 C.3     1  UNL1        0.0030
     22 C          61.8649   85.8838    9.3506 C.3     1  UNL1        0.0359
     23 C          63.0257   85.6598    8.4276 C.3     1  UNL1        0.0030
@<TRIPOS>BOND
     1    21    22    1
     2    22    23    1
     3    22    18    1
     4    18    19    1
     5    18     1    1
     6     1     2    2
     7     1     3   am
     8     3     4    1
     9     4     5    1
    10     5     6    1
    11     6     9    1
    12     9    10    2
    13    10    11    1
    14    11    12    2
    15    12    13    1
    16    13    14    2
    17    14    15    1
    18    15    16    2
    19    16    17    1
    20     6     7    1
    21     7     8    1
    22     8     3    1
    23    17     9    1
    24    16    12    1
    25    19    20    1
