@<TRIPOS>MOLECULE
*****
 14 16 0 0 0
SMALL
GASTEIGER

@<TRIPOS>ATOM
      1 C          62.5883   85.4939   11.9368 C.2     1  UNL1        0.4104
      2 N          62.8171   84.3213   11.0298 N.2     1  UNL1       -0.0281
      3 C          62.7678   83.0746   11.8625 C.2     1  UNL1        0.2322
      4 C          62.9256   81.6252   11.5098 C.2     1  UNL1        0.0498
      5 C          62.8240   80.5779   12.5788 C.2     1  UNL1       -0.0002
      6 C          62.5647   80.9800   14.0004 C.2     1  UNL1       -0.0172
      7 C          62.4069   82.4294   14.3531 C.3     1  UNL1        0.1037
      8 C          62.5085   83.4767   13.2841 C.2     1  UNL1        0.2179
      9 N          62.3975   84.9719   13.3301 N.2     1  UNL1       -0.0320
     10 C          62.2050   88.9580   10.2283 C.ar    1  UNL1        0.0441
     11 C          62.8069   89.3494   11.5453 C.ar    1  UNL1        0.1800
     12 O          63.0237   88.0994   12.3456 O.2     1  UNL1       -0.4426
     13 C          62.5559   86.9354   11.5233 C.ar    1  UNL1        0.2333
     14 C          62.0499   87.4661   10.2147 C.ar    1  UNL1        0.0488
@<TRIPOS>BOND
     1    10    11   ar
     2    11    12   ar
     3    12    13   ar
     4    13     1    1
     5     1     2    2
     6     2     3    1
     7     3     4    2
     8     4     5    1
     9     5     6    2
    10     6     7    1
    11     7     8    1
    12     8     9    2
    13    13    14   ar
    14    14    10   ar
    15     9     1    1
    16     8     3    1
@<TRIPOS>MOLECULE
*****
 14 16 0 0 0
SMALL
GASTEIGER

@<TRIPOS>ATOM
      1 C          62.5894   85.4891   11.9366 C.2     1  UNL1        0.4104
      2 N          62.3979   84.9671   13.3297 N.2     1  UNL1       -0.0281
      3 C          62.5095   83.4720   13.2839 C.2     1  UNL1        0.2322
      4 C          62.4076   82.4247   14.3529 C.2     1  UNL1        0.0498
      5 C          62.5661   80.9753   14.0004 C.2     1  UNL1       -0.0002
      6 C          62.8266   80.5733   12.5789 C.2     1  UNL1       -0.0172
      7 C          62.9285   81.6206   11.5100 C.3     1  UNL1        0.1037
      8 C          62.7699   83.0699   11.8624 C.2     1  UNL1        0.2179
      9 N          62.8193   84.3166   11.0298 N.2     1  UNL1       -0.0320
     10 C          62.2061   88.9529   10.2275 C.ar    1  UNL1        0.0441
     11 C          62.8067   89.3447   11.5450 C.ar    1  UNL1        0.1800
     12 O          63.0233   88.0948   12.3456 O.2     1  UNL1       -0.4426
     13 C          62.5567   86.9306   11.5229 C.ar    1  UNL1        0.2333
     14 C          62.0516   87.4610   10.2138 C.ar    1  UNL1        0.0488
@<TRIPOS>BOND
     1    10    11   ar
     2    11    12   ar
     3    12    13   ar
     4    13     1    1
     5     1     2    2
     6     2     3    1
     7     3     4    2
     8     4     5    1
     9     5     6    2
    10     6     7    1
    11     7     8    1
    12     8     9    2
    13    13    14   ar
    14    14    10   ar
    15     9     1    1
    16     8     3    1
@<TRIPOS>MOLECULE
*****
 14 16 0 0 0
SMALL
GASTEIGER

@<TRIPOS>ATOM
      1 C          63.3526   85.3685   13.4142 C.2     1  UNL1        0.4104
      2 N          62.6294   84.5083   14.4076 N.2     1  UNL1       -0.0281
      3 C          62.5569   83.1175   13.8505 C.2     1  UNL1        0.2322
      4 C          61.9607   81.8506   14.3884 C.2     1  UNL1        0.0498
      5 C          62.0431   80.5843   13.5886 C.2     1  UNL1       -0.0002
      6 C          62.7215   80.5850   12.2508 C.2     1  UNL1       -0.0172
      7 C          63.3177   81.8519   11.7129 C.3     1  UNL1        0.1037
      8 C          63.2353   83.1182   12.5127 C.2     1  UNL1        0.2179
      9 N          63.7271   84.5094   12.2431 N.2     1  UNL1       -0.0320
     10 C          64.4472   88.9450   14.4517 C.ar    1  UNL1        0.0441
     11 C          63.7644   89.2186   13.1444 C.ar    1  UNL1        0.1800
     12 O          63.2713   87.9122   12.5967 O.2     1  UNL1       -0.4426
     13 C          63.6493   86.8311   13.5654 C.ar    1  UNL1        0.2333
     14 C          64.3760   87.4695   14.7119 C.ar    1  UNL1        0.0488
@<TRIPOS>BOND
     1    10    11   ar
     2    11    12   ar
     3    12    13   ar
     4    13     1    1
     5     1     2    2
     6     2     3    1
     7     3     4    2
     8     4     5    1
     9     5     6    2
    10     6     7    1
    11     7     8    1
    12     8     9    2
    13    13    14   ar
    14    14    10   ar
    15     9     1    1
    16     8     3    1
@<TRIPOS>MOLECULE
*****
 14 16 0 0 0
SMALL
GASTEIGER

@<TRIPOS>ATOM
      1 C          61.6754   86.7264   11.0246 C.2     1  UNL1        0.4104
      2 N          62.3513   86.0628    9.8616 N.2     1  UNL1       -0.0281
      3 C          62.9326   84.7660   10.3414 C.2     1  UNL1        0.2322
      4 C          63.7093   83.6929    9.6378 C.2     1  UNL1        0.0498
      5 C          64.1695   82.4819   10.3939 C.2     1  UNL1       -0.0002
      6 C          63.8529   82.3440   11.8536 C.2     1  UNL1       -0.0172
      7 C          63.0762   83.4171   12.5572 C.3     1  UNL1        0.1037
      8 C          62.6160   84.6281   11.8011 C.2     1  UNL1        0.2179
      9 N          61.8390   85.8397   12.2234 N.2     1  UNL1       -0.0320
     10 C          60.1576   90.2189   10.2735 C.ar    1  UNL1        0.0441
     11 C          59.5671   89.9302   11.6219 C.ar    1  UNL1        0.1800
     12 O          60.0638   88.5867   12.0673 O.2     1  UNL1       -0.4426
     13 C          60.9613   88.0452   10.9943 C.ar    1  UNL1        0.2333
     14 C          61.0192   89.0539    9.8857 C.ar    1  UNL1        0.0488
@<TRIPOS>BOND
     1    10    11   ar
     2    11    12   ar
     3    12    13   ar
     4    13     1    1
     5     1     2    2
     6     2     3    1
     7     3     4    2
     8     4     5    1
     9     5     6    2
    10     6     7    1
    11     7     8    1
    12     8     9    2
    13    13    14   ar
    14    14    10   ar
    15     9     1    1
    16     8     3    1
@<TRIPOS>MOLECULE
*****
 14 16 0 0 0
SMALL
GASTEIGER

@<TRIPOS>ATOM
      1 C          62.3523   88.8455   11.2927 C.2     1  UNL1        0.4104
      2 N          61.5234   89.6816   10.3632 N.2     1  UNL1       -0.0281
      3 C          60.8213   88.7591    9.4114 C.2     1  UNL1        0.2322
      4 C          59.8733   89.0180    8.2781 C.2     1  UNL1        0.0498
      5 C          59.3204   87.8705    7.4859 C.2     1  UNL1       -0.0002
      6 C          59.7153   86.4642    7.8271 C.2     1  UNL1       -0.0172
      7 C          60.6633   86.2054    8.9604 C.3     1  UNL1        0.1037
      8 C          61.2162   87.3529    9.7525 C.2     1  UNL1        0.2179
      9 N          62.1624   87.4063   10.9152 N.2     1  UNL1       -0.0320
     10 C          64.5767   90.8214   13.7854 C.ar    1  UNL1        0.0441
     11 C          64.5280   89.4749   14.4447 C.ar    1  UNL1        0.1800
     12 O          63.6888   88.5709   13.5912 O.2     1  UNL1       -0.4426
     13 C          63.2188   89.3586   12.4043 C.ar    1  UNL1        0.2333
     14 C          63.7676   90.7495   12.5244 C.ar    1  UNL1        0.0488
@<TRIPOS>BOND
     1    10    11   ar
     2    11    12   ar
     3    12    13   ar
     4    13     1    1
     5     1     2    2
     6     2     3    1
     7     3     4    2
     8     4     5    1
     9     5     6    2
    10     6     7    1
    11     7     8    1
    12     8     9    2
    13    13    14   ar
    14    14    10   ar
    15     9     1    1
    16     8     3    1
@<TRIPOS>MOLECULE
*****
 14 16 0 0 0
SMALL
GASTEIGER

@<TRIPOS>ATOM
      1 C          61.9645   88.4728   10.4552 C.2     1  UNL1        0.4104
      2 N          62.4544   87.8756   11.7410 N.2     1  UNL1       -0.0281
      3 C          63.2646   88.9157   12.4562 C.2     1  UNL1        0.2322
      4 C          63.9939   88.8938   13.7668 C.2     1  UNL1        0.0498
      5 C          64.7341   90.1120   14.2336 C.2     1  UNL1       -0.0002
      6 C          64.7450   91.3522   13.3899 C.2     1  UNL1       -0.0172
      7 C          64.0157   91.3741   12.0793 C.3     1  UNL1        0.1037
      8 C          63.2755   90.1559   11.6125 C.2     1  UNL1        0.2179
      9 N          62.4720   89.8821   10.3758 N.2     1  UNL1       -0.0320
     10 C          60.2706   86.1272    7.8678 C.ar    1  UNL1        0.0441
     11 C          59.3503   87.3112    7.8318 C.ar    1  UNL1        0.1800
     12 O          59.8728   88.3339    8.7966 O.2     1  UNL1       -0.4426
     13 C          61.1160   87.7821    9.4290 C.ar    1  UNL1        0.2333
     14 C          61.3618   86.4183    8.8549 C.ar    1  UNL1        0.0488
@<TRIPOS>BOND
     1    10    11   ar
     2    11    12   ar
     3    12    13   ar
     4    13     1    1
     5     1     2    2
     6     2     3    1
     7     3     4    2
     8     4     5    1
     9     5     6    2
    10     6     7    1
    11     7     8    1
    12     8     9    2
    13    13    14   ar
    14    14    10   ar
    15     9     1    1
    16     8     3    1
@<TRIPOS>MOLECULE
*****
 14 16 0 0 0
SMALL
GASTEIGER

@<TRIPOS>ATOM
      1 C          62.3885   86.0681   11.5726 C.2     1  UNL1        0.4104
      2 N          61.6508   85.3785   10.4635 N.2     1  UNL1       -0.0281
      3 C          60.9861   86.4297    9.6250 C.2     1  UNL1        0.2322
      4 C          60.1254   86.3404    8.3998 C.2     1  UNL1        0.0498
      5 C          59.5916   87.5904    7.7655 C.2     1  UNL1       -0.0002
      6 C          59.9185   88.9298    8.3564 C.2     1  UNL1       -0.0172
      7 C          60.7792   89.0191    9.5816 C.3     1  UNL1        0.1037
      8 C          61.3130   87.7691   10.2159 C.2     1  UNL1        0.2179
      9 N          62.1797   87.5456   11.4196 N.2     1  UNL1       -0.0320
     10 C          64.4608   83.7405   13.8864 C.ar    1  UNL1        0.0441
     11 C          64.4045   84.9928   14.7103 C.ar    1  UNL1        0.1800
     12 O          63.6214   86.0171   13.9438 O.2     1  UNL1       -0.4426
     13 C          63.1937   85.3979   12.6462 C.ar    1  UNL1        0.2333
     14 C          63.7125   83.9910   12.6108 C.ar    1  UNL1        0.0488
@<TRIPOS>BOND
     1    10    11   ar
     2    11    12   ar
     3    12    13   ar
     4    13     1    1
     5     1     2    2
     6     2     3    1
     7     3     4    2
     8     4     5    1
     9     5     6    2
    10     6     7    1
    11     7     8    1
    12     8     9    2
    13    13    14   ar
    14    14    10   ar
    15     9     1    1
    16     8     3    1
@<TRIPOS>MOLECULE
*****
 14 16 0 0 0
SMALL
GASTEIGER

@<TRIPOS>ATOM
      1 C          62.0361   88.6306   10.5202 C.2     1  UNL1        0.4104
      2 N          62.5764   90.0280   10.4468 N.2     1  UNL1       -0.0281
      3 C          63.3749   90.2822   11.6908 C.2     1  UNL1        0.2322
      4 C          64.1386   91.4828   12.1655 C.2     1  UNL1        0.0498
      5 C          64.8554   91.4431   13.4825 C.2     1  UNL1       -0.0002
      6 C          64.8086   90.2028   14.3248 C.2     1  UNL1       -0.0172
      7 C          64.0450   89.0022   13.8502 C.3     1  UNL1        0.1037
      8 C          63.3281   89.0419   12.5332 C.2     1  UNL1        0.2179
      9 N          62.5007   88.0212   11.8097 N.2     1  UNL1       -0.0320
     10 C          60.2648   86.2987    7.9726 C.ar    1  UNL1        0.0441
     11 C          59.4669   87.5591    7.8153 C.ar    1  UNL1        0.1800
     12 O          60.0333   88.5860    8.7504 O.2     1  UNL1       -0.4426
     13 C          61.1813   87.9603    9.4858 C.ar    1  UNL1        0.2333
     14 C          61.3243   86.5467    9.0050 C.ar    1  UNL1        0.0488
@<TRIPOS>BOND
     1    10    11   ar
     2    11    12   ar
     3    12    13   ar
     4    13     1    1
     5     1     2    2
     6     2     3    1
     7     3     4    2
     8     4     5    1
     9     5     6    2
    10     6     7    1
    11     7     8    1
    12     8     9    2
    13    13    14   ar
    14    14    10   ar
    15     9     1    1
    16     8     3    1
@<TRIPOS>MOLECULE
*****
 14 16 0 0 0
SMALL
GASTEIGER

@<TRIPOS>ATOM
      1 C          62.4103   89.1579   11.1659 C.2     1  UNL1        0.4104
      2 N          62.2144   87.6894   10.9311 N.2     1  UNL1       -0.0281
      3 C          61.2455   87.5264    9.7976 C.2     1  UNL1        0.2322
      4 C          60.6781   86.3093    9.1294 C.2     1  UNL1        0.0498
      5 C          59.7078   86.4600    7.9955 C.2     1  UNL1       -0.0002
      6 C          59.3049   87.8278    7.5298 C.2     1  UNL1       -0.0172
      7 C          59.8723   89.0449    8.1981 C.3     1  UNL1        0.1037
      8 C          60.8426   88.8942    9.3319 C.2     1  UNL1        0.2179
      9 N          61.5625   89.9025   10.1776 N.2     1  UNL1       -0.0320
     10 C          64.6483   90.0820   14.1996 C.ar    1  UNL1        0.0441
     11 C          64.6806   91.3604   13.4155 C.ar    1  UNL1        0.1800
     12 O          63.8462   91.1697   12.1837 O.2     1  UNL1       -0.4426
     13 C          63.2982   89.7736   12.2064 C.ar    1  UNL1        0.2333
     14 C          63.7939   89.1014   13.4523 C.ar    1  UNL1        0.0488
@<TRIPOS>BOND
     1    10    11   ar
     2    11    12   ar
     3    12    13   ar
     4    13     1    1
     5     1     2    2
     6     2     3    1
     7     3     4    2
     8     4     5    1
     9     5     6    2
    10     6     7    1
    11     7     8    1
    12     8     9    2
    13    13    14   ar
    14    14    10   ar
    15     9     1    1
    16     8     3    1
