@<TRIPOS>MOLECULE
*****
 30 34 0 0 0
SMALL
GASTEIGER

@<TRIPOS>ATOM
      1 N          63.0047   89.7056   11.4618 N.ar    1  UNL1       -0.3256
      2 C          63.0272   88.3179   12.0309 C.ar    1  UNL1        0.0367
      3 C          63.8934   88.3332   13.2554 C.ar    1  UNL1        0.0109
      4 C          64.4063   89.7302   13.4431 C.ar    1  UNL1        0.0167
      5 C          65.3024   90.3395   14.4802 C.ar    1  UNL1        0.0308
      6 C          65.6493   91.7971   14.4087 C.ar    1  UNL1        0.1402
      7 F          66.5455   92.4065   15.4459 F       1  UNL1       -0.2042
      8 C          65.1001   92.6453   13.3002 C.ar    1  UNL1        0.0311
      9 C          64.2040   92.0360   12.2631 C.ar    1  UNL1        0.0195
     10 C          63.8570   90.5784   12.3346 C.ar    1  UNL1        0.0598
     11 C          64.1032   87.0729   14.0413 C.3     1  UNL1        0.1216
     12 N          63.4468   85.7974   13.6028 N.am    1  UNL1       -0.2715
     13 C          63.6567   84.5371   14.3888 C.2     1  UNL1        0.2493
     14 O          64.5228   84.5524   15.6133 O.2     1  UNL1       -0.2699
     15 C          62.5806   85.7822   12.3782 C.3     1  UNL1        0.1003
     16 C          62.3708   87.0425   11.5923 C.3     1  UNL1        0.0650
     17 C          63.0002   83.2617   13.9501 C.ar    1  UNL1        0.0536
     18 C          62.0301   82.5663   14.8586 C.ar    1  UNL1        0.0045
     19 C          61.3738   81.2909   14.4198 C.ar    1  UNL1        0.0001
     20 C          61.6875   80.7108   13.0726 C.ar    1  UNL1        0.0000
     21 C          62.6576   81.4062   12.1640 C.ar    1  UNL1        0.0001
     22 C          62.9714   80.8262   10.8168 C.ar    1  UNL1        0.0000
     23 C          63.9415   81.5215    9.9083 C.ar    1  UNL1        0.0000
     24 C          64.5978   82.7970   10.3470 C.ar    1  UNL1        0.0000
     25 C          64.2841   83.3770   11.6943 C.ar    1  UNL1        0.0001
     26 C          63.3140   82.6816   12.6028 C.ar    1  UNL1        0.0044
     27 C          62.2606   90.1436   10.2352 C.3     1  UNL1        0.1474
     28 O          60.1714   89.1508    9.0521 O.co2   1  UNL1       -0.5472
     29 C          60.7731   89.9672   10.1574 C.2     1  UNL1        0.0732
     30 O          59.8872   90.6072   11.1848 O.co2   1  UNL1       -0.5472
@<TRIPOS>UNITY_ATOM_ATTR
28 1
charge -1
@<TRIPOS>BOND
     1    28    29   ar
     2    29    30   ar
     3    29    27    1
     4    27     1    1
     5     1     2   ar
     6     2     3   ar
     7     3     4   ar
     8     4     5   ar
     9     5     6   ar
    10     6     7    1
    11     6     8   ar
    12     8     9   ar
    13     9    10   ar
    14     3    11    1
    15    11    12    1
    16    12    13   am
    17    13    14    2
    18    13    17    1
    19    17    18   ar
    20    18    19   ar
    21    19    20   ar
    22    20    21   ar
    23    21    22   ar
    24    22    23   ar
    25    23    24   ar
    26    24    25   ar
    27    25    26   ar
    28    12    15    1
    29    15    16    1
    30    10     1   ar
    31    26    17   ar
    32    16     2    1
    33    10     4   ar
    34    26    21   ar
@<TRIPOS>MOLECULE
*****
 30 34 0 0 0
SMALL
GASTEIGER

@<TRIPOS>ATOM
      1 N          62.1005   86.3714   11.4095 N.ar    1  UNL1       -0.3256
      2 C          62.7701   87.5941   11.9631 C.ar    1  UNL1        0.0367
      3 C          62.4278   88.7528   11.0741 C.ar    1  UNL1        0.0109
      4 C          61.5465   88.2461    9.9710 C.ar    1  UNL1        0.0167
      5 C          60.9021   88.9348    8.8046 C.ar    1  UNL1        0.0308
      6 C          60.0555   88.1517    7.8456 C.ar    1  UNL1        0.1402
      7 F          59.4110   88.8403    6.6791 F       1  UNL1       -0.2042
      8 C          59.8532   86.6799    8.0529 C.ar    1  UNL1        0.0311
      9 C          60.4976   85.9912    9.2193 C.ar    1  UNL1        0.0195
     10 C          61.3442   86.7743   10.1783 C.ar    1  UNL1        0.0598
     11 C          62.9627   90.1194   11.3838 C.3     1  UNL1        0.1216
     12 N          63.8400   90.3275   12.5826 N.am    1  UNL1       -0.2715
     13 C          64.3750   91.6943   12.8923 C.2     1  UNL1        0.2493
     14 O          64.0326   92.8529   12.0033 O.2     1  UNL1       -0.2699
     15 C          64.1824   89.1689   13.4716 C.3     1  UNL1        0.1003
     16 C          63.6475   87.8022   13.1619 C.3     1  UNL1        0.0650
     17 C          65.2523   91.9023   14.0911 C.ar    1  UNL1        0.0536
     18 C          64.6387   92.0716   15.4493 C.ar    1  UNL1        0.0045
     19 C          65.5161   92.2796   16.6481 C.ar    1  UNL1        0.0001
     20 C          67.0071   92.3182   16.4886 C.ar    1  UNL1        0.0000
     21 C          67.6208   92.1489   15.1303 C.ar    1  UNL1        0.0001
     22 C          69.1117   92.1875   14.9708 C.ar    1  UNL1        0.0000
     23 C          69.7253   92.0182   13.6126 C.ar    1  UNL1        0.0000
     24 C          68.8479   91.8102   12.4138 C.ar    1  UNL1        0.0000
     25 C          67.3570   91.7716   12.5733 C.ar    1  UNL1        0.0001
     26 C          66.7434   91.9409   13.9316 C.ar    1  UNL1        0.0044
     27 C          62.1741   84.9885   11.9859 C.3     1  UNL1        0.1474
     28 O          64.4112   84.3575   13.1466 O.co2   1  UNL1       -0.5472
     29 C          62.9631   84.7383   13.2367 C.2     1  UNL1        0.0732
     30 O          62.3041   84.8688   14.5779 O.co2   1  UNL1       -0.5472
@<TRIPOS>UNITY_ATOM_ATTR
28 1
charge -1
@<TRIPOS>BOND
     1    28    29   ar
     2    29    30   ar
     3    29    27    1
     4    27     1    1
     5     1     2   ar
     6     2     3   ar
     7     3     4   ar
     8     4     5   ar
     9     5     6   ar
    10     6     7    1
    11     6     8   ar
    12     8     9   ar
    13     9    10   ar
    14     3    11    1
    15    11    12    1
    16    12    13   am
    17    13    14    2
    18    13    17    1
    19    17    18   ar
    20    18    19   ar
    21    19    20   ar
    22    20    21   ar
    23    21    22   ar
    24    22    23   ar
    25    23    24   ar
    26    24    25   ar
    27    25    26   ar
    28    12    15    1
    29    15    16    1
    30    10     1   ar
    31    26    17   ar
    32    16     2    1
    33    10     4   ar
    34    26    21   ar
@<TRIPOS>MOLECULE
*****
 30 34 0 0 0
SMALL
GASTEIGER

@<TRIPOS>ATOM
      1 N          57.3367   93.8563   -4.0360 N.ar    1  UNL1       -0.3256
      2 C          58.2715   93.8863   -2.8633 C.ar    1  UNL1        0.0367
      3 C          57.5925   94.6250   -1.7482 C.ar    1  UNL1        0.0109
      4 C          56.2381   95.0515   -2.2318 C.ar    1  UNL1        0.0167
      5 C          55.1284   95.8110   -1.5674 C.ar    1  UNL1        0.0308
      6 C          53.8607   96.0955   -2.3169 C.ar    1  UNL1        0.1402
      7 F          52.7509   96.8551   -1.6524 F       1  UNL1       -0.2042
      8 C          53.7026   95.6204   -3.7308 C.ar    1  UNL1        0.0311
      9 C          54.8123   94.8608   -4.3953 C.ar    1  UNL1        0.0195
     10 C          56.0801   94.5764   -3.6458 C.ar    1  UNL1        0.0598
     11 C          58.2952   94.8138   -0.4366 C.3     1  UNL1        0.1216
     12 N          59.6769   94.2640   -0.2399 N.am    1  UNL1       -0.2715
     13 C          60.3796   94.4528    1.0718 C.2     1  UNL1        0.2493
     14 O          59.7007   95.1915    2.1869 O.2     1  UNL1       -0.2699
     15 C          60.3559   93.5253   -1.3550 C.3     1  UNL1        0.1003
     16 C          59.6532   93.3365   -2.6667 C.3     1  UNL1        0.0650
     17 C          61.7613   93.9030    1.2683 C.ar    1  UNL1        0.0536
     18 C          61.9591   92.6261    2.0301 C.ar    1  UNL1        0.0045
     19 C          63.3409   92.0763    2.2266 C.ar    1  UNL1        0.0001
     20 C          64.5248   92.8034    1.6613 C.ar    1  UNL1        0.0000
     21 C          64.3270   94.0804    0.8995 C.ar    1  UNL1        0.0001
     22 C          65.5109   94.8075    0.3342 C.ar    1  UNL1        0.0000
     23 C          65.3131   96.0844   -0.4276 C.ar    1  UNL1        0.0000
     24 C          63.9314   96.6342   -0.6241 C.ar    1  UNL1        0.0000
     25 C          62.7475   95.9071   -0.0588 C.ar    1  UNL1        0.0001
     26 C          62.9453   94.6302    0.7030 C.ar    1  UNL1        0.0044
     27 C          57.6106   93.2181   -5.3656 C.3     1  UNL1        0.1474
     28 O          57.0679   90.8703   -4.3945 O.co2   1  UNL1       -0.5472
     29 C          57.3126   91.7631   -5.5748 C.2     1  UNL1        0.0732
     30 O          57.2593   91.2006   -6.9644 O.co2   1  UNL1       -0.5472
@<TRIPOS>UNITY_ATOM_ATTR
28 1
charge -1
@<TRIPOS>BOND
     1    28    29   ar
     2    29    30   ar
     3    29    27    1
     4    27     1    1
     5     1     2   ar
     6     2     3   ar
     7     3     4   ar
     8     4     5   ar
     9     5     6   ar
    10     6     7    1
    11     6     8   ar
    12     8     9   ar
    13     9    10   ar
    14     3    11    1
    15    11    12    1
    16    12    13   am
    17    13    14    2
    18    13    17    1
    19    17    18   ar
    20    18    19   ar
    21    19    20   ar
    22    20    21   ar
    23    21    22   ar
    24    22    23   ar
    25    23    24   ar
    26    24    25   ar
    27    25    26   ar
    28    12    15    1
    29    15    16    1
    30    10     1   ar
    31    26    17   ar
    32    16     2    1
    33    10     4   ar
    34    26    21   ar
@<TRIPOS>MOLECULE
*****
 30 34 0 0 0
SMALL
GASTEIGER

@<TRIPOS>ATOM
      1 N          57.3044   94.3009   -4.3112 N.ar    1  UNL1       -0.3256
      2 C          58.2851   94.3860   -3.1794 C.ar    1  UNL1        0.0367
      3 C          57.5978   95.0425   -2.0189 C.ar    1  UNL1        0.0109
      4 C          56.1923   95.3632   -2.4336 C.ar    1  UNL1        0.0167
      5 C          55.0543   96.0133   -1.7041 C.ar    1  UNL1        0.0308
      6 C          53.7349   96.2051   -2.3914 C.ar    1  UNL1        0.1402
      7 F          52.5967   96.8552   -1.6620 F       1  UNL1       -0.2042
      8 C          53.5536   95.7467   -3.8081 C.ar    1  UNL1        0.0311
      9 C          54.6916   95.0966   -4.5376 C.ar    1  UNL1        0.0195
     10 C          56.0110   94.9048   -3.8503 C.ar    1  UNL1        0.0598
     11 C          58.3405   95.2635   -0.7346 C.3     1  UNL1        0.1216
     12 N          59.7705   94.8279   -0.6107 N.am    1  UNL1       -0.2715
     13 C          60.5133   95.0490    0.6737 C.2     1  UNL1        0.2493
     14 O          59.8260   95.7055    1.8341 O.2     1  UNL1       -0.2699
     15 C          60.4578   94.1714   -1.7711 C.3     1  UNL1        0.1003
     16 C          59.7151   93.9504   -3.0555 C.3     1  UNL1        0.0650
     17 C          61.9433   94.6134    0.7975 C.ar    1  UNL1        0.0536
     18 C          63.0179   95.3458    0.0500 C.ar    1  UNL1        0.0045
     19 C          64.4479   94.9102    0.1738 C.ar    1  UNL1        0.0001
     20 C          64.8033   93.7422    1.0452 C.ar    1  UNL1        0.0000
     21 C          63.7287   93.0097    1.7928 C.ar    1  UNL1        0.0001
     22 C          64.0841   91.8416    2.6642 C.ar    1  UNL1        0.0000
     23 C          63.0095   91.1092    3.4117 C.ar    1  UNL1        0.0000
     24 C          61.5795   91.5448    3.2878 C.ar    1  UNL1        0.0000
     25 C          61.2241   92.7129    2.4164 C.ar    1  UNL1        0.0001
     26 C          62.2987   93.4453    1.6689 C.ar    1  UNL1        0.0044
     27 C          57.5704   93.7148   -5.6661 C.3     1  UNL1        0.1474
     28 O          57.3278   91.2815   -4.7883 O.co2   1  UNL1       -0.5472
     29 C          57.2950   92.2628   -5.9224 C.2     1  UNL1        0.0732
     30 O          56.9867   91.7919   -7.3128 O.co2   1  UNL1       -0.5472
@<TRIPOS>UNITY_ATOM_ATTR
28 1
charge -1
@<TRIPOS>BOND
     1    28    29   ar
     2    29    30   ar
     3    29    27    1
     4    27     1    1
     5     1     2   ar
     6     2     3   ar
     7     3     4   ar
     8     4     5   ar
     9     5     6   ar
    10     6     7    1
    11     6     8   ar
    12     8     9   ar
    13     9    10   ar
    14     3    11    1
    15    11    12    1
    16    12    13   am
    17    13    14    2
    18    13    17    1
    19    17    18   ar
    20    18    19   ar
    21    19    20   ar
    22    20    21   ar
    23    21    22   ar
    24    22    23   ar
    25    23    24   ar
    26    24    25   ar
    27    25    26   ar
    28    12    15    1
    29    15    16    1
    30    10     1   ar
    31    26    17   ar
    32    16     2    1
    33    10     4   ar
    34    26    21   ar
