@<TRIPOS>MOLECULE
*****
 37 42 0 0 0
SMALL
GASTEIGER

@<TRIPOS>ATOM
      1 N          65.6228   93.4045   11.4587 N.am    1  UNL1       -0.2736
      2 C          64.8391   92.1359   11.2964 C.3     1  UNL1        0.1205
      3 C          64.9316   91.3663   12.5806 C.ar    1  UNL1        0.0021
      4 C          64.3588   90.0459   13.0029 C.ar    1  UNL1       -0.0010
      5 C          64.6269   89.5185   14.3813 C.ar    1  UNL1        0.0174
      6 C          65.4679   90.3114   15.3373 C.ar    1  UNL1        0.0055
      7 C          66.0407   91.6318   14.9150 C.ar    1  UNL1        0.0756
      8 C          65.7726   92.1592   13.5366 C.ar    1  UNL1        0.0551
      9 C          66.1998   93.4189   12.8433 C.2     1  UNL1        0.2489
     10 O          67.0539   94.5027   13.4313 O.2     1  UNL1       -0.2699
     11 C          64.0541   88.1980   14.8037 C.ar    1  UNL1        0.0845
     12 C          63.6421   87.9809   16.2295 C.ar    1  UNL1        0.0399
     13 C          63.0693   86.6605   16.6519 C.ar    1  UNL1        0.1037
     14 N          62.9085   85.5572   15.6485 N.ar    1  UNL1       -0.2095
     15 N          62.3783   84.1594   15.7700 N.ar    1  UNL1       -0.1490
     16 C          62.4627   83.5125   14.4193 C.ar    1  UNL1        0.1486
     17 N          62.0392   82.1132   14.0839 N.pl3   1  UNL1       -0.3412
     18 C          63.0450   84.5106   13.4630 C.ar    1  UNL1        0.0717
     19 C          63.3205   85.7743   14.2226 C.ar    1  UNL1        0.1665
     20 N          63.8933   87.0948   13.8002 N.ar    1  UNL1       -0.2264
     21 H          61.6660   81.5306   14.7842 H       1  UNL1        0.1438
     22 H          62.1344   81.7774   13.1633 H       1  UNL1        0.1438
     23 C          63.3060   84.2847   12.0032 C.ar    1  UNL1        0.0453
     24 C          64.2076   83.2369   11.4207 C.ar    1  UNL1        0.1218
     25 N          64.1701   83.3714    9.9271 N.ar    1  UNL1       -0.1676
     26 N          63.2453   84.5022    9.5868 N.ar    1  UNL1       -0.2473
     27 C          62.9128   84.9841    8.2056 C.3     1  UNL1        0.1538
     28 C          62.7113   85.0666   10.8698 C.ar    1  UNL1        0.0969
     29 C          66.8817   92.4248   15.8710 C.3     1  UNL1        0.4187
     30 F          67.7226   93.2178   16.8270 F       1  UNL1       -0.1659
     31 F          65.6506   92.8035   16.6398 F       1  UNL1       -0.1659
     32 F          68.1127   92.0461   15.1022 F       1  UNL1       -0.1659
     33 C          64.8984   95.6710   10.4157 C.3     1  UNL1        0.0215
     34 C          65.7987   94.4713   10.4191 C.3     1  UNL1        0.0759
     35 C          66.8750   94.3385    9.3828 C.3     1  UNL1        0.0182
     36 C          67.6029   94.8814    8.1889 C.3     1  UNL1        0.0017
     37 C          68.0114   93.5656    8.7819 C.3     1  UNL1        0.0017
@<TRIPOS>BOND
     1    34    33    1
     2    34    35    1
     3    35    36    1
     4    36    37    1
     5    34     1    1
     6     1     2    1
     7     2     3    1
     8     3     4   ar
     9     4     5   ar
    10     5    11    1
    11    11    12   ar
    12    12    13   ar
    13    13    14   ar
    14    14    15   ar
    15    15    16   ar
    16    16    17    1
    17    16    18   ar
    18    18    23    1
    19    23    24   ar
    20    24    25   ar
    21    25    26   ar
    22    26    27    1
    23    26    28   ar
    24    18    19   ar
    25    19    20   ar
    26     5     6   ar
    27     6     7   ar
    28     7    29    1
    29    29    30    1
    30    29    31    1
    31    29    32    1
    32     7     8   ar
    33     8     9    1
    34     9    10    2
    35    37    35    1
    36     9     1   am
    37     8     3   ar
    38    20    11   ar
    39    19    14   ar
    40    28    23   ar
    41    17    21    1
    42    17    22    1
@<TRIPOS>MOLECULE
*****
 37 42 0 0 0
SMALL
GASTEIGER

@<TRIPOS>ATOM
      1 N          60.0604   88.4385    8.4278 N.am    1  UNL1       -0.2736
      2 C          60.5991   89.6603    9.1111 C.3     1  UNL1        0.1205
      3 C          61.5103   89.2107   10.2146 C.ar    1  UNL1        0.0021
      4 C          62.3208   89.9731   11.2203 C.ar    1  UNL1       -0.0010
      5 C          63.1558   89.2358   12.2248 C.ar    1  UNL1        0.0174
      6 C          63.1802   87.7360   12.2236 C.ar    1  UNL1        0.0055
      7 C          62.3696   86.9735   11.2178 C.ar    1  UNL1        0.0756
      8 C          61.5347   87.7109   10.2133 C.ar    1  UNL1        0.0551
      9 C          60.6386   87.2337    9.1090 C.2     1  UNL1        0.2489
     10 O          60.3683   85.8028    8.7492 O.2     1  UNL1       -0.2699
     11 C          63.9664   89.9982   13.2307 C.ar    1  UNL1        0.0845
     12 C          64.0195   89.5360   14.6567 C.ar    1  UNL1        0.0399
     13 C          64.8301   90.2984   15.6625 C.ar    1  UNL1        0.1037
     14 N          65.5876   91.5231   15.2423 N.ar    1  UNL1       -0.2095
     15 N          66.4650   92.4712   16.0045 N.ar    1  UNL1       -0.1490
     16 C          66.9541   93.5195   15.0496 C.ar    1  UNL1        0.1486
     17 N          67.8595   94.6667   15.3877 N.pl3   1  UNL1       -0.3412
     18 C          66.3790   93.2191   13.6972 C.ar    1  UNL1        0.0717
     19 C          65.5345   91.9853   13.8163 C.ar    1  UNL1        0.1665
     20 N          64.7239   91.2228   12.8105 N.ar    1  UNL1       -0.2264
     21 H          68.1867   94.7804   16.3093 H       1  UNL1        0.1438
     22 H          68.1264   95.3059   14.6881 H       1  UNL1        0.1438
     23 C          66.6083   94.0132   12.4455 C.ar    1  UNL1        0.0453
     24 C          66.3868   95.4879   12.2841 C.ar    1  UNL1        0.1218
     25 N          66.7409   95.8583   10.8742 N.ar    1  UNL1       -0.1676
     26 N          67.1813   94.6124   10.1645 N.ar    1  UNL1       -0.2473
     27 C          67.6257   94.5226    8.7346 C.3     1  UNL1        0.1538
     28 C          67.0994   93.4721   11.1356 C.ar    1  UNL1        0.0969
     29 C          62.3940   85.4737   11.2166 C.3     1  UNL1        0.4187
     30 F          62.4184   83.9739   11.2153 F       1  UNL1       -0.1659
     31 F          61.6915   85.4612   12.5418 F       1  UNL1       -0.1659
     32 F          63.0966   85.4863    9.8913 F       1  UNL1       -0.1659
     33 C          58.1818   87.2622    7.0724 C.3     1  UNL1        0.0215
     34 C          59.1104   88.4240    7.2671 C.3     1  UNL1        0.0759
     35 C          59.0888   89.5713    6.3012 C.3     1  UNL1        0.0182
     36 C          58.3241   90.6055    5.5294 C.3     1  UNL1        0.0017
     37 C          59.8163   90.5244    5.3998 C.3     1  UNL1        0.0017
@<TRIPOS>BOND
     1    34    33    1
     2    34    35    1
     3    35    36    1
     4    36    37    1
     5    34     1    1
     6     1     2    1
     7     2     3    1
     8     3     4   ar
     9     4     5   ar
    10     5    11    1
    11    11    12   ar
    12    12    13   ar
    13    13    14   ar
    14    14    15   ar
    15    15    16   ar
    16    16    17    1
    17    16    18   ar
    18    18    23    1
    19    23    24   ar
    20    24    25   ar
    21    25    26   ar
    22    26    27    1
    23    26    28   ar
    24    18    19   ar
    25    19    20   ar
    26     5     6   ar
    27     6     7   ar
    28     7    29    1
    29    29    30    1
    30    29    31    1
    31    29    32    1
    32     7     8   ar
    33     8     9    1
    34     9    10    2
    35    37    35    1
    36     9     1   am
    37     8     3   ar
    38    20    11   ar
    39    19    14   ar
    40    28    23   ar
    41    17    21    1
    42    17    22    1
@<TRIPOS>MOLECULE
*****
 37 42 0 0 0
SMALL
GASTEIGER

@<TRIPOS>ATOM
      1 N          61.2316   86.2643    9.0084 N.am    1  UNL1       -0.2736
      2 C          61.5488   87.6779    9.3970 C.3     1  UNL1        0.1205
      3 C          62.2618   87.6471   10.7163 C.ar    1  UNL1        0.0021
      4 C          62.8146   88.7385   11.5842 C.ar    1  UNL1       -0.0010
      5 C          63.4908   88.3972   12.8788 C.ar    1  UNL1        0.0174
      6 C          63.6143   86.9645   13.3057 C.ar    1  UNL1        0.0055
      7 C          63.0615   85.8731   12.4378 C.ar    1  UNL1        0.0756
      8 C          62.3853   86.2144   11.1432 C.ar    1  UNL1        0.0551
      9 C          61.7485   85.3598   10.0876 C.2     1  UNL1        0.2489
     10 O          61.6467   83.8634   10.1077 O.2     1  UNL1       -0.2699
     11 C          64.0437   89.4887   13.7468 C.ar    1  UNL1        0.0845
     12 C          63.7415   89.5042   15.2159 C.ar    1  UNL1        0.0399
     13 C          64.2942   90.5956   16.0839 C.ar    1  UNL1        0.1037
     14 N          65.1493   91.6715   15.4826 N.ar    1  UNL1       -0.2095
     15 N          65.8289   92.8662   16.0830 N.ar    1  UNL1       -0.1490
     16 C          66.5512   93.5891   14.9850 C.ar    1  UNL1        0.1486
     17 N          67.3640   94.8404   15.1390 N.pl3   1  UNL1       -0.3412
     18 C          66.3179   92.8411   13.7059 C.ar    1  UNL1        0.0717
     19 C          65.4515   91.6559   14.0135 C.ar    1  UNL1        0.1665
     20 N          64.8987   90.5645   13.1455 N.ar    1  UNL1       -0.2264
     21 H          67.4589   95.2598   16.0246 H       1  UNL1        0.1438
     22 H          67.8025   95.2421   14.3544 H       1  UNL1        0.1438
     23 C          66.8566   93.2130   12.3563 C.ar    1  UNL1        0.0453
     24 C          67.7995   92.3928   11.5267 C.ar    1  UNL1        0.1218
     25 N          68.0726   93.1432   10.2569 N.ar    1  UNL1       -0.1676
     26 N          67.2984   94.4272   10.3018 N.ar    1  UNL1       -0.2473
     27 C          67.2792   95.4828    9.2362 C.3     1  UNL1        0.1538
     28 C          66.5469   94.4703   11.5993 C.ar    1  UNL1        0.0969
     29 C          63.1849   84.4405   12.8646 C.3     1  UNL1        0.4187
     30 F          63.3083   83.0078   13.2915 F       1  UNL1       -0.1659
     31 F          64.2678   84.2309   11.8480 F       1  UNL1       -0.1659
     32 F          62.1021   84.6500   13.8813 F       1  UNL1       -0.1659
     33 C          59.1045   86.2571    7.5167 C.3     1  UNL1        0.0215
     34 C          60.5220   85.8312    7.7598 C.3     1  UNL1        0.0759
     35 C          61.2299   84.9722    6.7544 C.3     1  UNL1        0.0182
     36 C          61.1824   83.9754    5.6346 C.3     1  UNL1        0.0017
     37 C          62.5037   84.4813    6.1328 C.3     1  UNL1        0.0017
@<TRIPOS>BOND
     1    34    33    1
     2    34    35    1
     3    35    36    1
     4    36    37    1
     5    34     1    1
     6     1     2    1
     7     2     3    1
     8     3     4   ar
     9     4     5   ar
    10     5    11    1
    11    11    12   ar
    12    12    13   ar
    13    13    14   ar
    14    14    15   ar
    15    15    16   ar
    16    16    17    1
    17    16    18   ar
    18    18    23    1
    19    23    24   ar
    20    24    25   ar
    21    25    26   ar
    22    26    27    1
    23    26    28   ar
    24    18    19   ar
    25    19    20   ar
    26     5     6   ar
    27     6     7   ar
    28     7    29    1
    29    29    30    1
    30    29    31    1
    31    29    32    1
    32     7     8   ar
    33     8     9    1
    34     9    10    2
    35    37    35    1
    36     9     1   am
    37     8     3   ar
    38    20    11   ar
    39    19    14   ar
    40    28    23   ar
    41    17    21    1
    42    17    22    1
