@<TRIPOS>MOLECULE
*****
 40 41 0 0 0
SMALL
GASTEIGER

@<TRIPOS>ATOM
      1 P          63.4464   90.1067   15.5790 P.3     1  UNL1        0.3697
      2 O          62.4185   89.4305   16.4370 O.2     1  UNL1       -0.2553
      3 O          63.4605   91.2765   16.5178 O.3     1  UNL1       -0.3218
      4 H          62.8369   91.1164   17.2433 H       1  UNL1        0.2198
      5 C          64.4743   90.7829   14.7210 C.3     1  UNL1        0.2579
      6 O          65.1945   91.9967   15.2291 O.3     1  UNL1       -0.3426
      7 C          66.6648   92.1561   14.9785 C.3     1  UNL1        0.1387
      8 C          67.5824   92.5236   16.1067 C.3     1  UNL1        0.0342
      9 C          67.2175   91.9482   13.5995 C.3     1  UNL1        0.1384
     10 N          66.8865   92.9186   12.5046 N.ar    1  UNL1       -0.2918
     11 C          65.9610   94.0935   12.6179 C.ar    1  UNL1        0.1798
     12 N          65.9255   94.7854   11.2875 N.ar    1  UNL1       -0.2195
     13 C          66.8290   94.0381   10.3520 C.ar    1  UNL1        0.1481
     14 C          67.1877   94.2592    8.9124 C.ar    1  UNL1        0.1480
     15 N          66.5937   95.4130    8.1602 N.pl3   1  UNL1       -0.3413
     16 N          68.1403   93.3264    8.2251 N.ar    1  UNL1       -0.2078
     17 C          68.7342   92.1726    8.9773 C.ar    1  UNL1        0.2015
     18 N          68.3756   91.9515   10.4169 N.ar    1  UNL1       -0.2048
     19 C          67.4230   92.8843   11.1043 C.ar    1  UNL1        0.1674
     20 H          65.9685   96.0252    8.6113 H       1  UNL1        0.1438
     21 H          66.8291   95.5581    7.2153 H       1  UNL1        0.1438
     22 O          63.4323   88.9370   14.6402 O.3     1  UNL1       -0.2926
     23 C          64.5887   87.9820   14.6143 C.3     1  UNL1        0.1514
     24 C          64.3543   86.5277   14.3314 C.3     1  UNL1        0.0326
     25 C          63.9297   85.6074   15.4372 C.3     1  UNL1        0.0026
     26 C          63.6979   84.1526   15.1548 C.3     1  UNL1        0.0001
     27 C          62.2998   83.6113   15.1074 C.3     1  UNL1        0.0000
     28 C          61.9805   82.4340   14.2344 C.3     1  UNL1        0.0000
     29 C          63.0813   81.5336   13.7574 C.3     1  UNL1        0.0000
     30 C          63.5637   81.6249   12.3400 C.3     1  UNL1        0.0000
     31 C          64.2989   82.8469   11.8752 C.3     1  UNL1        0.0000
     32 C          64.0717   83.3777   10.4907 C.3     1  UNL1        0.0000
     33 C          63.0045   84.4031   10.2464 C.3     1  UNL1        0.0000
     34 C          62.3287   85.0730   11.4059 C.3     1  UNL1        0.0000
     35 C          61.6881   86.4173   11.2261 C.3     1  UNL1        0.0000
     36 C          62.5338   87.6561   11.2177 C.3     1  UNL1        0.0000
     37 C          62.3266   88.6985   10.1592 C.3     1  UNL1        0.0000
     38 C          61.6169   89.9768   10.4942 C.3     1  UNL1        0.0000
     39 C          59.3399   90.1935   11.7263 C.3     1  UNL1        0.0000
     40 C          60.1186   90.0355   10.4541 C.3     1  UNL1        0.0000
@<TRIPOS>BOND
     1    39    40    1
     2    40    38    1
     3    38    37    1
     4    37    36    1
     5    36    35    1
     6    35    34    1
     7    34    33    1
     8    33    32    1
     9    32    31    1
    10    31    30    1
    11    30    29    1
    12    29    28    1
    13    28    27    1
    14    27    26    1
    15    26    25    1
    16    25    24    1
    17    24    23    1
    18    23    22    1
    19    22     1    1
    20     1     2    2
    21     1     3    1
    22     1     5    1
    23     5     6    1
    24     6     7    1
    25     7     8    1
    26     7     9    1
    27     9    10    1
    28    10    11   ar
    29    11    12   ar
    30    12    13   ar
    31    13    14   ar
    32    14    15    1
    33    14    16   ar
    34    16    17   ar
    35    17    18   ar
    36    18    19   ar
    37    19    10   ar
    38    19    13   ar
    39     3     4    1
    40    15    20    1
    41    15    21    1
@<TRIPOS>MOLECULE
*****
 40 41 0 0 0
SMALL
GASTEIGER

@<TRIPOS>ATOM
      1 P          63.5628   90.0888   13.3713 P.3     1  UNL1        0.3697
      2 O          62.6443   89.8901   12.2022 O.2     1  UNL1       -0.2553
      3 O          63.4784   91.5748   13.1851 O.3     1  UNL1       -0.3218
      4 H          62.9002   91.7740   12.4322 H       1  UNL1        0.2198
      5 C          64.4814   90.2874   14.5404 C.3     1  UNL1        0.2579
      6 O          64.8642   91.6738   14.9664 O.3     1  UNL1       -0.3426
      7 C          66.2901   92.1257   14.8553 C.3     1  UNL1        0.1387
      8 C          66.9866   92.7108   16.0480 C.3     1  UNL1        0.0342
      9 C          67.0197   91.9926   13.5514 C.3     1  UNL1        0.1384
     10 N          66.8314   93.0233   12.4779 N.ar    1  UNL1       -0.2918
     11 C          66.0460   94.2949   12.6046 C.ar    1  UNL1        0.1798
     12 N          66.1247   95.0207   11.2943 N.ar    1  UNL1       -0.2195
     13 C          66.9588   94.1978   10.3578 C.ar    1  UNL1        0.1481
     14 C          67.3769   94.4130    8.9335 C.ar    1  UNL1        0.1480
     15 N          66.9401   95.6476    8.2020 N.pl3   1  UNL1       -0.3413
     16 N          68.2319   93.3937    8.2407 N.ar    1  UNL1       -0.2078
     17 C          68.6687   92.1592    8.9722 C.ar    1  UNL1        0.2015
     18 N          68.2506   91.9440   10.3966 N.ar    1  UNL1       -0.2048
     19 C          67.3956   92.9632   11.0894 C.ar    1  UNL1        0.1674
     20 H          66.3790   96.3166    8.6567 H       1  UNL1        0.1438
     21 H          67.2146   95.7888    7.2671 H       1  UNL1        0.1438
     22 O          63.6473   88.6028   13.5574 O.3     1  UNL1       -0.2926
     23 C          64.3688   88.0353   14.7437 C.3     1  UNL1        0.1514
     24 C          64.8234   86.6059   14.7318 C.3     1  UNL1        0.0326
     25 C          63.8299   85.5048   14.5073 C.3     1  UNL1        0.0026
     26 C          63.3898   84.6461   15.6557 C.3     1  UNL1        0.0001
     27 C          62.4401   83.5090   15.4212 C.3     1  UNL1        0.0000
     28 C          62.3915   82.8366   14.0813 C.3     1  UNL1        0.0000
     29 C          63.4166   81.8014   13.7239 C.3     1  UNL1        0.0000
     30 C          63.1904   80.8958   12.5497 C.3     1  UNL1        0.0000
     31 C          62.9806   81.4777   11.1832 C.3     1  UNL1        0.0000
     32 C          64.0308   82.3584   10.5738 C.3     1  UNL1        0.0000
     33 C          63.7995   83.8365   10.4652 C.3     1  UNL1        0.0000
     34 C          62.4796   84.4210   10.8729 C.3     1  UNL1        0.0000
     35 C          62.3554   85.8958   11.1162 C.3     1  UNL1        0.0000
     36 C          61.6931   86.7715   10.0942 C.3     1  UNL1        0.0000
     37 C          60.6503   86.2002    9.1797 C.3     1  UNL1        0.0000
     38 C          60.9398   86.0457    7.7161 C.3     1  UNL1        0.0000
     39 C          61.9005   84.3347    6.0133 C.3     1  UNL1        0.0000
     40 C          62.0548   85.1508    7.2624 C.3     1  UNL1        0.0000
@<TRIPOS>BOND
     1    39    40    1
     2    40    38    1
     3    38    37    1
     4    37    36    1
     5    36    35    1
     6    35    34    1
     7    34    33    1
     8    33    32    1
     9    32    31    1
    10    31    30    1
    11    30    29    1
    12    29    28    1
    13    28    27    1
    14    27    26    1
    15    26    25    1
    16    25    24    1
    17    24    23    1
    18    23    22    1
    19    22     1    1
    20     1     2    2
    21     1     3    1
    22     1     5    1
    23     5     6    1
    24     6     7    1
    25     7     8    1
    26     7     9    1
    27     9    10    1
    28    10    11   ar
    29    11    12   ar
    30    12    13   ar
    31    13    14   ar
    32    14    15    1
    33    14    16   ar
    34    16    17   ar
    35    17    18   ar
    36    18    19   ar
    37    19    10   ar
    38    19    13   ar
    39     3     4    1
    40    15    20    1
    41    15    21    1
@<TRIPOS>MOLECULE
*****
 40 41 0 0 0
SMALL
GASTEIGER

@<TRIPOS>ATOM
      1 P          63.4845   90.1924   15.4670 P.3     1  UNL1        0.3697
      2 O          62.3351   89.5417   16.1779 O.2     1  UNL1       -0.2553
      3 O          63.4625   91.3163   16.4602 O.3     1  UNL1       -0.3218
      4 H          62.7569   91.1618   17.1077 H       1  UNL1        0.2198
      5 C          64.6340   90.8431   14.7562 C.3     1  UNL1        0.2579
      6 O          65.3663   91.9825   15.4007 O.3     1  UNL1       -0.3426
      7 C          66.7803   92.2862   15.0027 C.3     1  UNL1        0.1387
      8 C          67.7326   92.8694   16.0042 C.3     1  UNL1        0.0342
      9 C          67.2421   92.0067   13.6031 C.3     1  UNL1        0.1384
     10 N          66.9044   92.9620   12.4971 N.ar    1  UNL1       -0.2918
     11 C          65.9638   94.1264   12.5943 C.ar    1  UNL1        0.1798
     12 N          65.9261   94.8047   11.2569 N.ar    1  UNL1       -0.2195
     13 C          66.8434   94.0595   10.3332 C.ar    1  UNL1        0.1481
     14 C          67.2062   94.2708    8.8932 C.ar    1  UNL1        0.1480
     15 N          66.6015   95.4096    8.1267 N.pl3   1  UNL1       -0.3413
     16 N          68.1736   93.3432    8.2196 N.ar    1  UNL1       -0.2078
     17 C          68.7782   92.2044    8.9861 C.ar    1  UNL1        0.2015
     18 N          68.4154   91.9931   10.4261 N.ar    1  UNL1       -0.2048
     19 C          67.4480   92.9206   11.0996 C.ar    1  UNL1        0.1674
     20 H          65.9666   96.0184    8.5688 H       1  UNL1        0.1438
     21 H          66.8397   95.5483    7.1816 H       1  UNL1        0.1438
     22 O          63.5065   89.0685   14.4739 O.3     1  UNL1       -0.2926
     23 C          63.8407   89.3432   13.0376 C.3     1  UNL1        0.1514
     24 C          62.8420   89.0323   11.9625 C.3     1  UNL1        0.0326
     25 C          61.9694   90.1210   11.4119 C.3     1  UNL1        0.0026
     26 C          60.6143   89.7895   10.8608 C.3     1  UNL1        0.0001
     27 C          60.0541   88.4081   11.0278 C.3     1  UNL1        0.0000
     28 C          59.9455   87.4944    9.8431 C.3     1  UNL1        0.0000
     29 C          60.9408   86.3879    9.6555 C.3     1  UNL1        0.0000
     30 C          62.2808   86.6795    9.0477 C.3     1  UNL1        0.0000
     31 C          63.0998   85.5648    8.4676 C.3     1  UNL1        0.0000
     32 C          63.1334   84.2272    9.1457 C.3     1  UNL1        0.0000
     33 C          63.4395   84.1369   10.6114 C.3     1  UNL1        0.0000
     34 C          64.0850   82.9027   11.1681 C.3     1  UNL1        0.0000
     35 C          63.3716   81.5853   11.0955 C.3     1  UNL1        0.0000
     36 C          62.8258   80.9581   12.3440 C.3     1  UNL1        0.0000
     37 C          62.0690   81.7933   13.3338 C.3     1  UNL1        0.0000
     38 C          62.8093   82.5612   14.3884 C.3     1  UNL1        0.0000
     39 C          63.8218   84.9532   14.3329 C.3     1  UNL1        0.0000
     40 C          62.6370   84.0475   14.4939 C.3     1  UNL1        0.0000
@<TRIPOS>BOND
     1    39    40    1
     2    40    38    1
     3    38    37    1
     4    37    36    1
     5    36    35    1
     6    35    34    1
     7    34    33    1
     8    33    32    1
     9    32    31    1
    10    31    30    1
    11    30    29    1
    12    29    28    1
    13    28    27    1
    14    27    26    1
    15    26    25    1
    16    25    24    1
    17    24    23    1
    18    23    22    1
    19    22     1    1
    20     1     2    2
    21     1     3    1
    22     1     5    1
    23     5     6    1
    24     6     7    1
    25     7     8    1
    26     7     9    1
    27     9    10    1
    28    10    11   ar
    29    11    12   ar
    30    12    13   ar
    31    13    14   ar
    32    14    15    1
    33    14    16   ar
    34    16    17   ar
    35    17    18   ar
    36    18    19   ar
    37    19    10   ar
    38    19    13   ar
    39     3     4    1
    40    15    20    1
    41    15    21    1
@<TRIPOS>MOLECULE
*****
 40 41 0 0 0
SMALL
GASTEIGER

@<TRIPOS>ATOM
      1 P          59.6340   87.4535    8.1251 P.3     1  UNL1        0.3697
      2 O          58.9849   88.5387    7.3182 O.2     1  UNL1       -0.2553
      3 O          58.7930   86.4287    7.4234 O.3     1  UNL1       -0.3218
      4 H          58.2160   86.8694    6.7801 H       1  UNL1        0.2198
      5 C          60.2831   86.3684    8.9320 C.3     1  UNL1        0.2579
      6 O          61.7749   86.3377    9.0850 O.3     1  UNL1       -0.3426
      7 C          62.5610   85.1813    8.5419 C.3     1  UNL1        0.1387
      8 C          62.5205   84.8697    7.0752 C.3     1  UNL1        0.0342
      9 C          63.3875   84.3365    9.4657 C.3     1  UNL1        0.1384
     10 N          63.1293   84.3674   10.9430 N.ar    1  UNL1       -0.2918
     11 C          62.9336   85.5979   11.7782 C.ar    1  UNL1        0.1798
     12 N          62.7048   85.1642   13.1958 N.ar    1  UNL1       -0.2195
     13 C          62.7591   83.6657   13.2366 C.ar    1  UNL1        0.1481
     14 C          62.6035   82.6860   14.3618 C.ar    1  UNL1        0.1480
     15 N          62.3411   83.1785   15.7541 N.pl3   1  UNL1       -0.3413
     16 N          62.7102   81.2139   14.0945 N.ar    1  UNL1       -0.2078
     17 C          62.9726   80.7215   12.7022 C.ar    1  UNL1        0.2015
     18 N          63.1282   81.7012   11.5770 N.ar    1  UNL1       -0.2048
     19 C          63.0214   83.1733   11.8443 C.ar    1  UNL1        0.1674
     20 H          62.2710   84.1447   15.9295 H       1  UNL1        0.1438
     21 H          62.2390   82.5354   16.4926 H       1  UNL1        0.1438
     22 O          60.4749   88.4784    8.8269 O.3     1  UNL1       -0.2926
     23 C          59.9406   89.1864   10.0364 C.3     1  UNL1        0.1514
     24 C          60.6436   90.4009   10.5663 C.3     1  UNL1        0.0326
     25 C          62.1195   90.5651   10.3547 C.3     1  UNL1        0.0026
     26 C          63.0891   89.8142   11.2185 C.3     1  UNL1        0.0001
     27 C          63.2402   90.1764   12.6662 C.3     1  UNL1        0.0000
     28 C          63.9037   89.2209   13.6131 C.3     1  UNL1        0.0000
     29 C          64.8568   89.7343   14.6515 C.3     1  UNL1        0.0000
     30 C          65.0805   91.2101   14.8000 C.3     1  UNL1        0.0000
     31 C          66.4717   91.7445   14.9703 C.3     1  UNL1        0.0000
     32 C          67.1980   92.3328   13.7973 C.3     1  UNL1        0.0000
     33 C          66.6128   92.2224   12.4206 C.3     1  UNL1        0.0000
     34 C          65.7259   93.3111   11.8931 C.3     1  UNL1        0.0000
     35 C          66.2232   94.7254   11.8431 C.3     1  UNL1        0.0000
     36 C          66.0783   95.5273   10.5837 C.3     1  UNL1        0.0000
     37 C          67.2158   95.6050    9.6091 C.3     1  UNL1        0.0000
     38 C          67.5805   94.4059    8.7850 C.3     1  UNL1        0.0000
     39 C          68.2893   91.9537    9.2690 C.3     1  UNL1        0.0000
     40 C          68.5908   93.4228    9.2974 C.3     1  UNL1        0.0000
@<TRIPOS>BOND
     1    39    40    1
     2    40    38    1
     3    38    37    1
     4    37    36    1
     5    36    35    1
     6    35    34    1
     7    34    33    1
     8    33    32    1
     9    32    31    1
    10    31    30    1
    11    30    29    1
    12    29    28    1
    13    28    27    1
    14    27    26    1
    15    26    25    1
    16    25    24    1
    17    24    23    1
    18    23    22    1
    19    22     1    1
    20     1     2    2
    21     1     3    1
    22     1     5    1
    23     5     6    1
    24     6     7    1
    25     7     8    1
    26     7     9    1
    27     9    10    1
    28    10    11   ar
    29    11    12   ar
    30    12    13   ar
    31    13    14   ar
    32    14    15    1
    33    14    16   ar
    34    16    17   ar
    35    17    18   ar
    36    18    19   ar
    37    19    10   ar
    38    19    13   ar
    39     3     4    1
    40    15    20    1
    41    15    21    1
@<TRIPOS>MOLECULE
*****
 40 41 0 0 0
SMALL
GASTEIGER

@<TRIPOS>ATOM
      1 P          63.5107   90.2572   14.5380 P.3     1  UNL1        0.3697
      2 O          62.4668   89.6617   15.4356 O.2     1  UNL1       -0.2553
      3 O          64.0489   91.0515   15.6909 O.3     1  UNL1       -0.3218
      4 H          63.5285   90.8596   16.4867 H       1  UNL1        0.2198
      5 C          64.5545   90.8528   13.6404 C.3     1  UNL1        0.2579
      6 O          65.0157   92.2632   13.8591 O.3     1  UNL1       -0.3426
      7 C          66.4778   92.5582   14.0175 C.3     1  UNL1        0.1387
      8 C          66.9776   93.2245   15.2650 C.3     1  UNL1        0.0342
      9 C          67.4402   92.1870   12.9284 C.3     1  UNL1        0.1384
     10 N          67.3099   92.8072   11.5688 N.ar    1  UNL1       -0.2918
     11 C          67.6761   92.1604   10.2659 C.ar    1  UNL1        0.1798
     12 N          67.3830   93.1366    9.1654 N.ar    1  UNL1       -0.2195
     13 C          66.8357   94.3866    9.7881 C.ar    1  UNL1        0.1481
     14 C          66.3726   95.6840    9.1945 C.ar    1  UNL1        0.1480
     15 N          66.4178   95.8876    7.7091 N.pl3   1  UNL1       -0.3413
     16 N          65.8643   96.7777   10.0863 N.ar    1  UNL1       -0.2078
     17 C          65.8191   96.5741   11.5717 C.ar    1  UNL1        0.2015
     18 N          66.2822   95.2768   12.1654 N.ar    1  UNL1       -0.2048
     19 C          66.7905   94.1831   11.2736 C.ar    1  UNL1        0.1674
     20 H          66.7514   95.1697    7.1237 H       1  UNL1        0.1438
     21 H          66.1138   96.7391    7.3194 H       1  UNL1        0.1438
     22 O          62.9724   89.4629   13.3850 O.3     1  UNL1       -0.2926
     23 C          62.4444   90.1672   12.1705 C.3     1  UNL1        0.1514
     24 C          62.0251   89.3756   10.9674 C.3     1  UNL1        0.0326
     25 C          60.7072   89.6550   10.3079 C.3     1  UNL1        0.0026
     26 C          60.3882   89.0382    8.9783 C.3     1  UNL1        0.0001
     27 C          59.8417   87.6429    8.9105 C.3     1  UNL1        0.0000
     28 C          60.6778   86.5370    8.3378 C.3     1  UNL1        0.0000
     29 C          61.9021   86.0678    9.0667 C.3     1  UNL1        0.0000
     30 C          61.8261   85.7439   10.5293 C.3     1  UNL1        0.0000
     31 C          62.7025   84.6723   11.1067 C.3     1  UNL1        0.0000
     32 C          63.5833   83.8577   10.2064 C.3     1  UNL1        0.0000
     33 C          64.0938   82.5234   10.6636 C.3     1  UNL1        0.0000
     34 C          63.1337   81.4824   11.1582 C.3     1  UNL1        0.0000
     35 C          63.1170   81.1069   12.6103 C.3     1  UNL1        0.0000
     36 C          62.0046   81.5847   13.4959 C.3     1  UNL1        0.0000
     37 C          62.2779   82.6094   14.5567 C.3     1  UNL1        0.0000
     38 C          63.1197   83.8100   14.2405 C.3     1  UNL1        0.0000
     39 C          64.4168   85.9188   15.0281 C.3     1  UNL1        0.0000
     40 C          63.5535   84.7326   15.3407 C.3     1  UNL1        0.0000
@<TRIPOS>BOND
     1    39    40    1
     2    40    38    1
     3    38    37    1
     4    37    36    1
     5    36    35    1
     6    35    34    1
     7    34    33    1
     8    33    32    1
     9    32    31    1
    10    31    30    1
    11    30    29    1
    12    29    28    1
    13    28    27    1
    14    27    26    1
    15    26    25    1
    16    25    24    1
    17    24    23    1
    18    23    22    1
    19    22     1    1
    20     1     2    2
    21     1     3    1
    22     1     5    1
    23     5     6    1
    24     6     7    1
    25     7     8    1
    26     7     9    1
    27     9    10    1
    28    10    11   ar
    29    11    12   ar
    30    12    13   ar
    31    13    14   ar
    32    14    15    1
    33    14    16   ar
    34    16    17   ar
    35    17    18   ar
    36    18    19   ar
    37    19    10   ar
    38    19    13   ar
    39     3     4    1
    40    15    20    1
    41    15    21    1
@<TRIPOS>MOLECULE
*****
 40 41 0 0 0
SMALL
GASTEIGER

@<TRIPOS>ATOM
      1 P          63.3941   89.5242   12.8658 P.3     1  UNL1        0.3697
      2 O          63.1299   88.0793   12.5616 O.2     1  UNL1       -0.2553
      3 O          63.7422   89.1629   14.2794 O.3     1  UNL1       -0.3218
      4 H          63.6562   88.2042   14.3986 H       1  UNL1        0.2198
      5 C          63.6583   90.9691   13.1699 C.3     1  UNL1        0.2579
      6 O          64.9010   91.6297   12.6512 O.3     1  UNL1       -0.3426
      7 C          65.9292   92.1518   13.6105 C.3     1  UNL1        0.1387
      8 C          66.6262   91.2111   14.5482 C.3     1  UNL1        0.0342
      9 C          66.2605   93.6147   13.6320 C.3     1  UNL1        0.1384
     10 N          66.4635   94.3567   12.3443 N.ar    1  UNL1       -0.2918
     11 C          66.0750   95.7806   12.0765 C.ar    1  UNL1        0.1798
     12 N          66.4621   96.1090   10.6650 N.ar    1  UNL1       -0.2195
     13 C          67.0899   94.8881   10.0605 C.ar    1  UNL1        0.1481
     14 C          67.6609   94.6227    8.6991 C.ar    1  UNL1        0.1480
     15 N          67.6600   95.7056    7.6612 N.pl3   1  UNL1       -0.3413
     16 N          68.2328   93.2743    8.3756 N.ar    1  UNL1       -0.2078
     17 C          68.2336   92.1913    9.4135 C.ar    1  UNL1        0.2015
     18 N          67.6627   92.4568   10.7749 N.ar    1  UNL1       -0.2048
     19 C          67.0908   93.8052   11.0984 C.ar    1  UNL1        0.1674
     20 H          67.2847   96.5907    7.8736 H       1  UNL1        0.1438
     21 H          68.0348   95.5314    6.7677 H       1  UNL1        0.1438
     22 O          63.0460   89.8854   11.4521 O.3     1  UNL1       -0.2926
     23 C          61.7336   90.5450   11.1480 C.3     1  UNL1        0.1514
     24 C          60.4486   89.8587   11.5054 C.3     1  UNL1        0.0326
     25 C          60.1156   88.5275   10.8996 C.3     1  UNL1        0.0026
     26 C          60.1562   88.3498    9.4108 C.3     1  UNL1        0.0001
     27 C          59.9537   86.9896    8.8119 C.3     1  UNL1        0.0000
     28 C          61.1323   86.2056    8.3155 C.3     1  UNL1        0.0000
     29 C          62.2317   85.8239    9.2620 C.3     1  UNL1        0.0000
     30 C          61.8991   85.3491   10.6454 C.3     1  UNL1        0.0000
     31 C          62.8544   84.4579   11.3824 C.3     1  UNL1        0.0000
     32 C          63.8328   83.6141   10.6204 C.3     1  UNL1        0.0000
     33 C          63.7489   82.1182   10.6928 C.3     1  UNL1        0.0000
     34 C          62.7402   81.4662   11.5914 C.3     1  UNL1        0.0000
     35 C          63.0758   81.2037   13.0296 C.3     1  UNL1        0.0000
     36 C          62.2185   81.7800   14.1172 C.3     1  UNL1        0.0000
     37 C          62.6202   83.0587   14.7905 C.3     1  UNL1        0.0000
     38 C          64.0674   83.3368   15.0698 C.3     1  UNL1        0.0000
     39 C          64.7311   85.8451   14.9363 C.3     1  UNL1        0.0000
     40 C          64.7656   84.4599   14.3620 C.3     1  UNL1        0.0000
@<TRIPOS>BOND
     1    39    40    1
     2    40    38    1
     3    38    37    1
     4    37    36    1
     5    36    35    1
     6    35    34    1
     7    34    33    1
     8    33    32    1
     9    32    31    1
    10    31    30    1
    11    30    29    1
    12    29    28    1
    13    28    27    1
    14    27    26    1
    15    26    25    1
    16    25    24    1
    17    24    23    1
    18    23    22    1
    19    22     1    1
    20     1     2    2
    21     1     3    1
    22     1     5    1
    23     5     6    1
    24     6     7    1
    25     7     8    1
    26     7     9    1
    27     9    10    1
    28    10    11   ar
    29    11    12   ar
    30    12    13   ar
    31    13    14   ar
    32    14    15    1
    33    14    16   ar
    34    16    17   ar
    35    17    18   ar
    36    18    19   ar
    37    19    10   ar
    38    19    13   ar
    39     3     4    1
    40    15    20    1
    41    15    21    1
@<TRIPOS>MOLECULE
*****
 40 41 0 0 0
SMALL
GASTEIGER

@<TRIPOS>ATOM
      1 P          63.1531   89.7974   12.5242 P.3     1  UNL1        0.3697
      2 O          62.4459   88.4834   12.3715 O.2     1  UNL1       -0.2553
      3 O          64.1570   89.1514   13.4324 O.3     1  UNL1       -0.3218
      4 H          63.9423   88.2111   13.5351 H       1  UNL1        0.2198
      5 C          63.8604   91.1113   12.6769 C.3     1  UNL1        0.2579
      6 O          64.1858   91.6334   14.0449 O.3     1  UNL1       -0.3426
      7 C          65.5932   92.0276   14.3821 C.3     1  UNL1        0.1387
      8 C          65.9432   92.4336   15.7831 C.3     1  UNL1        0.0342
      9 C          66.6507   92.0159   13.3182 C.3     1  UNL1        0.1384
     10 N          66.7123   93.1246   12.3097 N.ar    1  UNL1       -0.2918
     11 C          66.1749   94.5131   12.4919 C.ar    1  UNL1        0.1798
     12 N          66.4526   95.2859   11.2367 N.ar    1  UNL1       -0.2195
     13 C          67.1616   94.3751   10.2787 C.ar    1  UNL1        0.1481
     14 C          67.6818   94.5895    8.8883 C.ar    1  UNL1        0.1480
     15 N          67.5212   95.9253    8.2251 N.pl3   1  UNL1       -0.3413
     16 N          68.3624   93.4681    8.1610 N.ar    1  UNL1       -0.2078
     17 C          68.5230   92.1322    8.8242 C.ar    1  UNL1        0.2015
     18 N          68.0028   91.9178   10.2146 N.ar    1  UNL1       -0.2048
     19 C          67.3221   93.0393   10.9419 C.ar    1  UNL1        0.1674
     20 H          67.0745   96.6614    8.7025 H       1  UNL1        0.1438
     21 H          67.8626   96.0660    7.3125 H       1  UNL1        0.1438
     22 O          62.1492   90.4433   11.6160 O.3     1  UNL1       -0.2926
     23 C          62.0740   90.0396   10.1733 C.3     1  UNL1        0.1514
     24 C          60.7850   89.5242    9.6049 C.3     1  UNL1        0.0326
     25 C          60.7400   88.1749    8.9513 C.3     1  UNL1        0.0026
     26 C          61.6810   87.0945    9.3957 C.3     1  UNL1        0.0001
     27 C          62.0007   85.9534    8.4761 C.3     1  UNL1        0.0000
     28 C          63.1686   85.0588    8.7689 C.3     1  UNL1        0.0000
     29 C          63.2606   84.3534   10.0895 C.3     1  UNL1        0.0000
     30 C          64.0421   83.0784   10.2060 C.3     1  UNL1        0.0000
     31 C          63.3331   81.7874   10.4897 C.3     1  UNL1        0.0000
     32 C          63.1477   81.3290   11.9058 C.3     1  UNL1        0.0000
     33 C          63.9642   81.9410   13.0052 C.3     1  UNL1        0.0000
     34 C          63.3071   82.8217   14.0262 C.3     1  UNL1        0.0000
     35 C          62.7853   84.1707   13.6287 C.3     1  UNL1        0.0000
     36 C          63.7062   85.3545   13.6070 C.3     1  UNL1        0.0000
     37 C          64.5338   85.6832   14.8141 C.3     1  UNL1        0.0000
     38 C          63.9695   86.5567   15.8950 C.3     1  UNL1        0.0000
     39 C          62.7166   86.6755   18.1680 C.3     1  UNL1        0.0000
     40 C          62.9452   86.0087   16.8440 C.3     1  UNL1        0.0000
@<TRIPOS>BOND
     1    39    40    1
     2    40    38    1
     3    38    37    1
     4    37    36    1
     5    36    35    1
     6    35    34    1
     7    34    33    1
     8    33    32    1
     9    32    31    1
    10    31    30    1
    11    30    29    1
    12    29    28    1
    13    28    27    1
    14    27    26    1
    15    26    25    1
    16    25    24    1
    17    24    23    1
    18    23    22    1
    19    22     1    1
    20     1     2    2
    21     1     3    1
    22     1     5    1
    23     5     6    1
    24     6     7    1
    25     7     8    1
    26     7     9    1
    27     9    10    1
    28    10    11   ar
    29    11    12   ar
    30    12    13   ar
    31    13    14   ar
    32    14    15    1
    33    14    16   ar
    34    16    17   ar
    35    17    18   ar
    36    18    19   ar
    37    19    10   ar
    38    19    13   ar
    39     3     4    1
    40    15    20    1
    41    15    21    1
@<TRIPOS>MOLECULE
*****
 40 41 0 0 0
SMALL
GASTEIGER

@<TRIPOS>ATOM
      1 P          59.4692   89.6296   11.7948 P.3     1  UNL1        0.3697
      2 O          58.6407   88.8928   12.8052 O.2     1  UNL1       -0.2553
      3 O          58.6181   90.8498   11.9869 O.3     1  UNL1       -0.3218
      4 H          57.9296   90.6636   12.6442 H       1  UNL1        0.2198
      5 C          60.2976   90.3665   10.7845 C.3     1  UNL1        0.2579
      6 O          61.4378   91.2302   11.2359 O.3     1  UNL1       -0.3426
      7 C          62.8520   90.7835   11.0110 C.3     1  UNL1        0.1387
      8 C          63.2748   89.4015   11.4126 C.3     1  UNL1        0.0342
      9 C          63.8434   91.7188   10.3845 C.3     1  UNL1        0.1384
     10 N          65.0208   92.2045   11.1768 N.ar    1  UNL1       -0.2918
     11 C          66.2433   92.8721   10.6202 C.ar    1  UNL1        0.1798
     12 N          67.1604   93.1879   11.7644 N.ar    1  UNL1       -0.2195
     13 C          66.5048   92.7155   13.0281 C.ar    1  UNL1        0.1481
     14 C          66.9410   92.7603   14.4625 C.ar    1  UNL1        0.1480
     15 N          68.2634   93.3682   14.8256 N.pl3   1  UNL1       -0.3413
     16 N          66.0549   92.1973   15.5338 N.ar    1  UNL1       -0.2078
     17 C          64.7325   91.5895   15.1707 C.ar    1  UNL1        0.2015
     18 N          64.2963   91.5447   13.7363 N.ar    1  UNL1       -0.2048
     19 C          65.1824   92.1077   12.6650 C.ar    1  UNL1        0.1674
     20 H          68.8450   93.7377   14.1225 H       1  UNL1        0.1438
     21 H          68.5497   93.3976   15.7671 H       1  UNL1        0.1438
     22 O          60.3202   88.4095   11.6028 O.3     1  UNL1       -0.2926
     23 C          60.0739   87.4991   10.4364 C.3     1  UNL1        0.1514
     24 C          61.0921   87.3922    9.3402 C.3     1  UNL1        0.0326
     25 C          60.8266   86.5148    8.1530 C.3     1  UNL1        0.0026
     26 C          61.8083   85.4449    7.7766 C.3     1  UNL1        0.0001
     27 C          63.0755   85.2798    8.5620 C.3     1  UNL1        0.0000
     28 C          63.0931   84.4088    9.7831 C.3     1  UNL1        0.0000
     29 C          64.1493   83.3549    9.9375 C.3     1  UNL1        0.0000
     30 C          64.1027   82.4115   11.1028 C.3     1  UNL1        0.0000
     31 C          63.2712   81.1654   11.0261 C.3     1  UNL1        0.0000
     32 C          62.6865   80.5758   12.2754 C.3     1  UNL1        0.0000
     33 C          63.0364   81.1562   13.6135 C.3     1  UNL1        0.0000
     34 C          62.0427   82.0104   14.3435 C.3     1  UNL1        0.0000
     35 C          62.4309   83.3833   14.8066 C.3     1  UNL1        0.0000
     36 C          63.2238   84.2827   13.9052 C.3     1  UNL1        0.0000
     37 C          64.7057   84.4166   14.0944 C.3     1  UNL1        0.0000
     38 C          65.2677   85.6243   14.7839 C.3     1  UNL1        0.0000
     39 C          64.3103   88.0334   14.6110 C.3     1  UNL1        0.0000
     40 C          64.3474   86.6958   15.2888 C.3     1  UNL1        0.0000
@<TRIPOS>BOND
     1    39    40    1
     2    40    38    1
     3    38    37    1
     4    37    36    1
     5    36    35    1
     6    35    34    1
     7    34    33    1
     8    33    32    1
     9    32    31    1
    10    31    30    1
    11    30    29    1
    12    29    28    1
    13    28    27    1
    14    27    26    1
    15    26    25    1
    16    25    24    1
    17    24    23    1
    18    23    22    1
    19    22     1    1
    20     1     2    2
    21     1     3    1
    22     1     5    1
    23     5     6    1
    24     6     7    1
    25     7     8    1
    26     7     9    1
    27     9    10    1
    28    10    11   ar
    29    11    12   ar
    30    12    13   ar
    31    13    14   ar
    32    14    15    1
    33    14    16   ar
    34    16    17   ar
    35    17    18   ar
    36    18    19   ar
    37    19    10   ar
    38    19    13   ar
    39     3     4    1
    40    15    20    1
    41    15    21    1
@<TRIPOS>MOLECULE
*****
 40 41 0 0 0
SMALL
GASTEIGER

@<TRIPOS>ATOM
      1 P          63.7559   87.0291   13.9539 P.3     1  UNL1        0.3697
      2 O          63.1309   86.0822   12.9726 O.2     1  UNL1       -0.2553
      3 O          63.5891   88.1534   12.9751 O.3     1  UNL1       -0.3218
      4 H          63.1722   87.8185   12.1658 H       1  UNL1        0.2198
      5 C          64.3809   87.9760   14.9351 C.3     1  UNL1        0.2579
      6 O          64.6737   89.3903   14.5303 O.3     1  UNL1       -0.3426
      7 C          64.4013   90.5152   15.4844 C.3     1  UNL1        0.1387
      8 C          63.2973   90.3929   16.4925 C.3     1  UNL1        0.0342
      9 C          65.2328   91.7626   15.4303 C.3     1  UNL1        0.1384
     10 N          66.3168   91.8973   14.4023 N.ar    1  UNL1       -0.2918
     11 C          67.7845   91.6956   14.6370 C.ar    1  UNL1        0.1798
     12 N          68.4981   91.9311   13.3388 N.ar    1  UNL1       -0.2195
     13 C          67.4715   92.2784   12.3018 C.ar    1  UNL1        0.1481
     14 C          67.5900   92.6109   10.8440 C.ar    1  UNL1        0.1480
     15 N          68.9382   92.6317   10.1867 N.pl3   1  UNL1       -0.3413
     16 N          66.3604   92.9226   10.0434 N.ar    1  UNL1       -0.2078
     17 C          65.0123   92.9017   10.7007 C.ar    1  UNL1        0.2015
     18 N          64.8937   92.5692   12.1586 N.ar    1  UNL1       -0.2048
     19 C          66.1233   92.2575   12.9591 C.ar    1  UNL1        0.1674
     20 H          69.7452   92.4272   10.7121 H       1  UNL1        0.1438
     21 H          69.0160   92.8500    9.2298 H       1  UNL1        0.1438
     22 O          63.9226   85.9048   14.9327 O.3     1  UNL1       -0.2926
     23 C          64.7002   84.6820   14.5451 C.3     1  UNL1        0.1514
     24 C          64.1353   83.3183   14.8115 C.3     1  UNL1        0.0326
     25 C          62.6556   83.0890   14.7233 C.3     1  UNL1        0.0026
     26 C          62.1283   81.7962   14.1751 C.3     1  UNL1        0.0001
     27 C          62.0075   81.6040   12.6924 C.3     1  UNL1        0.0000
     28 C          63.1660   81.0608   11.9096 C.3     1  UNL1        0.0000
     29 C          63.9614   81.9690   11.0193 C.3     1  UNL1        0.0000
     30 C          63.6993   83.4459   11.0281 C.3     1  UNL1        0.0000
     31 C          63.4325   84.1681    9.7408 C.3     1  UNL1        0.0000
     32 C          62.5043   85.3462    9.7200 C.3     1  UNL1        0.0000
     33 C          62.1953   86.0347    8.4238 C.3     1  UNL1        0.0000
     34 C          60.9055   85.7506    7.7125 C.3     1  UNL1        0.0000
     35 C          59.6495   86.4588    8.1255 C.3     1  UNL1        0.0000
     36 C          59.3708   87.8452    7.6250 C.3     1  UNL1        0.0000
     37 C          59.9659   89.0297    8.3270 C.3     1  UNL1        0.0000
     38 C          60.4308   88.9039    9.7476 C.3     1  UNL1        0.0000
     39 C          62.3516   90.5836   10.2366 C.3     1  UNL1        0.0000
     40 C          61.8655   89.1718   10.0937 C.3     1  UNL1        0.0000
@<TRIPOS>BOND
     1    39    40    1
     2    40    38    1
     3    38    37    1
     4    37    36    1
     5    36    35    1
     6    35    34    1
     7    34    33    1
     8    33    32    1
     9    32    31    1
    10    31    30    1
    11    30    29    1
    12    29    28    1
    13    28    27    1
    14    27    26    1
    15    26    25    1
    16    25    24    1
    17    24    23    1
    18    23    22    1
    19    22     1    1
    20     1     2    2
    21     1     3    1
    22     1     5    1
    23     5     6    1
    24     6     7    1
    25     7     8    1
    26     7     9    1
    27     9    10    1
    28    10    11   ar
    29    11    12   ar
    30    12    13   ar
    31    13    14   ar
    32    14    15    1
    33    14    16   ar
    34    16    17   ar
    35    17    18   ar
    36    18    19   ar
    37    19    10   ar
    38    19    13   ar
    39     3     4    1
    40    15    20    1
    41    15    21    1
