@<TRIPOS>MOLECULE
*****
 40 43 0 0 0
SMALL
GASTEIGER

@<TRIPOS>ATOM
      1 CA         62.5326   88.3655   12.0250 C.3     1  UNL1        0.1786
      2 C          62.4947   87.0642   11.2799 C.2     1  UNL1        0.2505
      3 O          63.0718   85.6976   11.5021 O.2     1  UNL1       -0.2726
      4 N          61.6407   87.6956   10.2206 N.am    1  UNL1       -0.2468
      5 CA         60.8822   87.5917    8.9307 C.2     1  UNL1        0.0623
      6 C          60.1616   88.7891    8.3859 C.2     1  UNL1       -0.0073
      7 C          60.1995   90.0904    9.1310 C.3     1  UNL1        0.0833
      8 S          60.9580   90.1943   10.4209 S.3     1  UNL1       -0.1142
      9 C          61.6786   88.9969   10.9657 C.3     1  UNL1        0.1548
     10 C          63.8663   90.1635   13.3434 C.2     1  UNL1        0.2687
     11 O          63.9389   91.0141   12.1100 O.2     1  UNL1       -0.2683
     12 N          63.1632   88.8393   13.3009 N.am    1  UNL1       -0.2914
     13 H          63.1157   88.2810   14.1104 H       1  UNL1        0.1503
     14 N          63.9051   90.2433   15.9400 N.2     1  UNL1       -0.0767
     15 C          64.4970   90.6373   14.6192 C.2     1  UNL1        0.1904
     16 C          65.7197   91.5051   14.5743 C.ar    1  UNL1        0.1150
     17 C          65.7484   92.9966   14.7310 C.ar    1  UNL1        0.0590
     18 S          67.1747   93.4471   14.6183 S.2     1  UNL1       -0.0514
     19 C          68.0275   92.2340   14.3921 C.ar    1  UNL1        0.1568
     20 N          69.5179   92.2230   14.2227 N.pl3   1  UNL1       -0.3375
     21 N          67.1282   91.0337   14.3649 N.ar    1  UNL1       -0.2227
     22 H          70.0233   93.0672   14.2562 H       1  UNL1        0.1442
     23 H          69.9906   91.3717   14.0781 H       1  UNL1        0.1442
     24 C          62.6636   88.1505   16.8504 C.3     1  UNL1        0.2885
     25 O          62.6824   89.3755   15.9849 O.2     1  UNL1       -0.3729
     26 C          60.8443   86.2904    8.1856 C.2     1  UNL1        0.0860
     27 O          59.5549   85.8012    7.5958 O.co2   1  UNL1       -0.5433
     28 OXT        62.0958   85.4783    8.0304 O.co2   1  UNL1       -0.5433
     29 C          59.4031   88.6853    7.0959 C.3     1  UNL1        0.0892
     30 S          58.6497   89.8716    6.5713 S.3     1  UNL1       -0.0713
     31 C          59.2498   90.7241    5.4929 C.ar    1  UNL1        0.1905
     32 N          60.7275   90.6817    5.2385 N.ar    1  UNL1       -0.1790
     33 C          61.3276   91.5343    4.1600 C.ar    1  UNL1        0.3356
     34 O          62.8052   91.4920    3.9056 O.2     1  UNL1       -0.2599
     35 C          60.4500   92.4292    3.3360 C.ar    1  UNL1        0.2980
     36 O          61.0501   93.2817    2.2576 O.3     1  UNL1       -0.4878
     37 N          58.9723   92.4716    3.5904 N.ar    1  UNL1       -0.1253
     38 N          58.3722   91.6190    4.6688 N.ar    1  UNL1       -0.2240
     39 C          56.8946   91.6614    4.9232 C.3     1  UNL1        0.1560
     40 H          61.9731   93.2553    2.0987 H       1  UNL1        0.2939
@<TRIPOS>UNITY_ATOM_ATTR
27 1
charge -1
@<TRIPOS>BOND
     1    24    25    1
     2    25    14    1
     3    14    15    2
     4    15    10    1
     5    10    11    2
     6    10    12   am
     7     1    12    1
     8     1     2    1
     9     2     3    2
    10     2     4   am
    11     4     5    1
    12     5    26    1
    13    26    27   ar
    14    26    28   ar
    15     5     6    2
    16     6    29    1
    17    29    30    1
    18    30    31    1
    19    31    32   ar
    20    32    33   ar
    21    33    34    2
    22    33    35   ar
    23    35    36    1
    24    35    37   ar
    25    37    38   ar
    26    38    39    1
    27     6     7    1
    28     7     8    1
    29     9     8    1
    30    15    16    1
    31    16    17   ar
    32    17    18   ar
    33    18    19   ar
    34    19    20    1
    35    19    21   ar
    36     9     1    1
    37    21    16   ar
    38     9     4    1
    39    38    31   ar
    40    12    13    1
    41    36    40    1
    42    20    22    1
    43    20    23    1
@<TRIPOS>MOLECULE
*****
 40 43 0 0 0
SMALL
GASTEIGER

@<TRIPOS>ATOM
      1 CA         61.9064   88.5222   10.1948 C.3     1  UNL1        0.1786
      2 C          62.1258   87.7965   11.4891 C.2     1  UNL1        0.2505
      3 O          61.6998   86.4710   12.0474 O.2     1  UNL1       -0.2726
      4 N          62.9475   88.9454   11.9940 N.am    1  UNL1       -0.2468
      5 CA         63.7688   89.5775   13.0783 C.2     1  UNL1        0.0623
      6 C          64.3707   90.9353   12.8684 C.2     1  UNL1       -0.0073
      7 C          64.1513   91.6609   11.5741 C.3     1  UNL1        0.0833
      8 S          63.3300   91.0289   10.4897 S.3     1  UNL1       -0.1142
      9 C          62.7281   89.6711   10.6996 C.3     1  UNL1        0.1548
     10 C          60.0824   89.1420    8.4516 C.2     1  UNL1        0.2687
     11 O          59.7306   90.3603    9.2528 O.2     1  UNL1       -0.2683
     12 N          61.1702   88.2230    8.9225 N.am    1  UNL1       -0.2914
     13 H          61.4011   87.4233    8.3967 H       1  UNL1        0.1503
     14 N          58.9685   87.4300    6.8458 N.2     1  UNL1       -0.0767
     15 C          59.3462   88.8428    7.1794 C.2     1  UNL1        0.1904
     16 C          58.9877   89.9565    6.2407 C.ar    1  UNL1        0.1150
     17 C          57.5990   90.4122    5.9029 C.ar    1  UNL1        0.0590
     18 S          57.7079   91.5474    4.9285 S.2     1  UNL1       -0.0514
     19 C          59.1638   91.7932    4.6640 C.ar    1  UNL1        0.1568
     20 N          59.7295   92.8387    3.7491 N.pl3   1  UNL1       -0.3375
     21 N          59.9548   90.8100    5.4750 N.ar    1  UNL1       -0.2227
     22 H          59.1259   93.4408    3.2569 H       1  UNL1        0.1442
     23 H          60.7045   92.9227    3.6409 H       1  UNL1        0.1442
     24 C          60.4846   85.4150    7.4715 C.3     1  UNL1        0.2885
     25 O          59.3271   86.3163    7.7845 O.2     1  UNL1       -0.3729
     26 C          63.9881   88.8518   14.3727 C.2     1  UNL1        0.0860
     27 O          64.6803   87.5211   14.3785 O.co2   1  UNL1       -0.5433
     28 OXT        63.5154   89.4569   15.6612 O.co2   1  UNL1       -0.5433
     29 C          65.1920   91.5674   13.9528 C.3     1  UNL1        0.0892
     30 S          66.5486   92.1247   13.6379 S.3     1  UNL1       -0.0713
     31 C          66.7052   93.1502   12.5545 C.ar    1  UNL1        0.1905
     32 N          66.0448   94.4903   12.6892 N.ar    1  UNL1       -0.1790
     33 C          66.2014   95.5158   11.6057 C.ar    1  UNL1        0.3356
     34 O          65.5411   96.8559   11.7403 O.2     1  UNL1       -0.2599
     35 C          67.0183   95.2012   10.3877 C.ar    1  UNL1        0.2980
     36 O          67.1749   96.2267    9.3043 O.3     1  UNL1       -0.4878
     37 N          67.6787   93.8612   10.2530 N.ar    1  UNL1       -0.1253
     38 N          67.5221   92.8356   11.3364 N.ar    1  UNL1       -0.2240
     39 C          68.1825   91.4956   11.2017 C.3     1  UNL1        0.1560
     40 H          66.7624   97.0638    9.3884 H       1  UNL1        0.2939
@<TRIPOS>UNITY_ATOM_ATTR
27 1
charge -1
@<TRIPOS>BOND
     1    24    25    1
     2    25    14    1
     3    14    15    2
     4    15    10    1
     5    10    11    2
     6    10    12   am
     7     1    12    1
     8     1     2    1
     9     2     3    2
    10     2     4   am
    11     4     5    1
    12     5    26    1
    13    26    27   ar
    14    26    28   ar
    15     5     6    2
    16     6    29    1
    17    29    30    1
    18    30    31    1
    19    31    32   ar
    20    32    33   ar
    21    33    34    2
    22    33    35   ar
    23    35    36    1
    24    35    37   ar
    25    37    38   ar
    26    38    39    1
    27     6     7    1
    28     7     8    1
    29     9     8    1
    30    15    16    1
    31    16    17   ar
    32    17    18   ar
    33    18    19   ar
    34    19    20    1
    35    19    21   ar
    36     9     1    1
    37    21    16   ar
    38     9     4    1
    39    38    31   ar
    40    12    13    1
    41    36    40    1
    42    20    22    1
    43    20    23    1
@<TRIPOS>MOLECULE
*****
 40 43 0 0 0
SMALL
GASTEIGER

@<TRIPOS>ATOM
      1 CA         63.9194   90.6713   12.3919 C.3     1  UNL1        0.1786
      2 C          63.0436   90.1232   11.3045 C.2     1  UNL1        0.2505
      3 O          62.3899   90.6931   10.0805 O.2     1  UNL1       -0.2726
      4 N          63.0920   88.7691   11.9480 N.am    1  UNL1       -0.2468
      5 CA         62.6961   87.3224   11.9615 C.2     1  UNL1        0.0623
      6 C          63.1760   86.4238   13.0625 C.2     1  UNL1       -0.0073
      7 C          64.0518   86.9720   14.1499 C.3     1  UNL1        0.0833
      8 S          64.4478   88.4187   14.1363 S.3     1  UNL1       -0.1142
      9 C          63.9679   89.3172   13.0354 C.3     1  UNL1        0.1548
     10 C          65.6836   92.5214   11.9283 C.2     1  UNL1        0.2687
     11 O          66.2778   91.6813   10.8368 O.2     1  UNL1       -0.2683
     12 N          64.5045   92.0164   12.7058 N.am    1  UNL1       -0.2914
     13 H          64.1145   92.5678   13.4221 H       1  UNL1        0.1503
     14 N          66.7992   94.1516   13.6159 N.2     1  UNL1       -0.0767
     15 C          66.2687   93.8664   12.2421 C.2     1  UNL1        0.1904
     16 C          66.3232   94.9264   11.1822 C.ar    1  UNL1        0.1150
     17 C          65.3181   96.0209   10.9772 C.ar    1  UNL1        0.0590
     18 S          65.7661   96.8489    9.8095 S.2     1  UNL1       -0.0514
     19 C          67.0480   96.2661    9.2927 C.ar    1  UNL1        0.1568
     20 N          67.8456   96.7811    8.1313 N.pl3   1  UNL1       -0.3375
     21 N          67.3923   95.0779   10.1410 N.ar    1  UNL1       -0.2227
     22 H          67.5361   97.5722    7.6338 H       1  UNL1        0.1442
     23 H          68.6786   96.3280    7.8667 H       1  UNL1        0.1442
     24 C          67.1429   93.4186   16.0846 C.3     1  UNL1        0.2885
     25 O          66.7447   93.0916   14.6758 O.2     1  UNL1       -0.3729
     26 C          61.8203   86.7743   10.8741 C.2     1  UNL1        0.0860
     27 O          62.3252   85.6755    9.9867 O.co2   1  UNL1       -0.5433
     28 OXT        60.4394   87.3249   10.6742 O.co2   1  UNL1       -0.5433
     29 C          62.7801   84.9770   13.0761 C.3     1  UNL1        0.0892
     30 S          63.8314   83.9109   12.9860 S.3     1  UNL1       -0.0713
     31 C          63.5020   82.5829   12.3712 C.ar    1  UNL1        0.1905
     32 N          62.8667   81.5083   13.2027 N.ar    1  UNL1       -0.1790
     33 C          62.5374   80.1803   12.5878 C.ar    1  UNL1        0.3356
     34 O          61.9020   79.1057   13.4194 O.2     1  UNL1       -0.2599
     35 C          62.8434   79.9270   11.1415 C.ar    1  UNL1        0.2980
     36 O          62.5141   78.5990   10.5266 O.3     1  UNL1       -0.4878
     37 N          63.4788   81.0016   10.3099 N.ar    1  UNL1       -0.1253
     38 N          63.8081   82.3295   10.9247 N.ar    1  UNL1       -0.2240
     39 C          64.4434   83.4042   10.0931 C.3     1  UNL1        0.1560
     40 H          62.1172   77.9278   11.0461 H       1  UNL1        0.2939
@<TRIPOS>UNITY_ATOM_ATTR
27 1
charge -1
@<TRIPOS>BOND
     1    24    25    1
     2    25    14    1
     3    14    15    2
     4    15    10    1
     5    10    11    2
     6    10    12   am
     7     1    12    1
     8     1     2    1
     9     2     3    2
    10     2     4   am
    11     4     5    1
    12     5    26    1
    13    26    27   ar
    14    26    28   ar
    15     5     6    2
    16     6    29    1
    17    29    30    1
    18    30    31    1
    19    31    32   ar
    20    32    33   ar
    21    33    34    2
    22    33    35   ar
    23    35    36    1
    24    35    37   ar
    25    37    38   ar
    26    38    39    1
    27     6     7    1
    28     7     8    1
    29     9     8    1
    30    15    16    1
    31    16    17   ar
    32    17    18   ar
    33    18    19   ar
    34    19    20    1
    35    19    21   ar
    36     9     1    1
    37    21    16   ar
    38     9     4    1
    39    38    31   ar
    40    12    13    1
    41    36    40    1
    42    20    22    1
    43    20    23    1
@<TRIPOS>MOLECULE
*****
 40 43 0 0 0
SMALL
GASTEIGER

@<TRIPOS>ATOM
      1 CA         62.1843   85.7704   11.7221 C.3     1  UNL1        0.1786
      2 C          61.6036   86.6186   10.6298 C.2     1  UNL1        0.2505
      3 O          60.7510   86.3573    9.4235 O.2     1  UNL1       -0.2726
      4 N          62.2285   87.8365   11.2433 N.am    1  UNL1       -0.2468
      5 CA         62.4793   89.3152   11.2284 C.2     1  UNL1        0.0623
      6 C          63.3108   89.9458   12.3058 C.2     1  UNL1       -0.0073
      7 C          63.8915   89.0975   13.3982 C.3     1  UNL1        0.0833
      8 S          63.6407   87.6187   13.4131 S.3     1  UNL1       -0.1142
      9 C          62.8092   86.9882   12.3356 C.3     1  UNL1        0.1548
     10 C          63.3654   83.6494   12.6475 C.2     1  UNL1        0.2687
     11 O          64.6092   84.4504   12.8958 O.2     1  UNL1       -0.2683
     12 N          62.1530   84.3094   12.0607 N.am    1  UNL1       -0.2914
     13 H          61.3367   83.7837   11.8978 H       1  UNL1        0.1503
     14 N          63.4578   81.7467   14.4143 N.2     1  UNL1       -0.0767
     15 C          63.3342   82.1885   12.9861 C.2     1  UNL1        0.1904
     16 C          63.1794   81.1692   11.8966 C.ar    1  UNL1        0.1150
     17 C          63.3566   81.4152   10.4275 C.ar    1  UNL1        0.0590
     18 S          63.1070   80.1231    9.7077 S.2     1  UNL1       -0.0514
     19 C          62.7755   79.0786   10.7320 C.ar    1  UNL1        0.1568
     20 N          62.4554   77.6400   10.4525 N.pl3   1  UNL1       -0.3375
     21 N          62.8202   79.7251   12.0847 N.ar    1  UNL1       -0.2227
     22 H          62.4511   77.3077    9.5258 H       1  UNL1        0.1442
     23 H          62.2497   77.0281   11.1958 H       1  UNL1        0.1442
     24 C          62.5399   83.7897   15.7311 C.3     1  UNL1        0.2885
     25 O          63.6125   82.7660   15.5039 O.2     1  UNL1       -0.3729
     26 C          61.8986   90.1635   10.1360 C.2     1  UNL1        0.0860
     27 O          60.4522   90.0218    9.7650 O.co2   1  UNL1       -0.5433
     28 OXT        62.7643   91.1535    9.4147 O.co2   1  UNL1       -0.5433
     29 C          63.5617   91.4246   12.2910 C.3     1  UNL1        0.0892
     30 S          64.9203   91.9513   11.9348 S.3     1  UNL1       -0.0713
     31 C          65.9509   92.1530   13.0058 C.ar    1  UNL1        0.1905
     32 N          65.5249   92.3271   14.4335 N.ar    1  UNL1       -0.1790
     33 C          66.5556   92.5288   15.5045 C.ar    1  UNL1        0.3356
     34 O          66.1295   92.7029   16.9321 O.2     1  UNL1       -0.2599
     35 C          68.0123   92.5564   15.1478 C.ar    1  UNL1        0.2980
     36 O          69.0429   92.7581   16.2188 O.3     1  UNL1       -0.4878
     37 N          68.4383   92.3824   13.7202 N.ar    1  UNL1       -0.1253
     38 N          67.4077   92.1807   12.6492 N.ar    1  UNL1       -0.2240
     39 C          67.8337   92.0066   11.2215 C.3     1  UNL1        0.1560
     40 H          68.7768   92.8669   17.1106 H       1  UNL1        0.2939
@<TRIPOS>UNITY_ATOM_ATTR
27 1
charge -1
@<TRIPOS>BOND
     1    24    25    1
     2    25    14    1
     3    14    15    2
     4    15    10    1
     5    10    11    2
     6    10    12   am
     7     1    12    1
     8     1     2    1
     9     2     3    2
    10     2     4   am
    11     4     5    1
    12     5    26    1
    13    26    27   ar
    14    26    28   ar
    15     5     6    2
    16     6    29    1
    17    29    30    1
    18    30    31    1
    19    31    32   ar
    20    32    33   ar
    21    33    34    2
    22    33    35   ar
    23    35    36    1
    24    35    37   ar
    25    37    38   ar
    26    38    39    1
    27     6     7    1
    28     7     8    1
    29     9     8    1
    30    15    16    1
    31    16    17   ar
    32    17    18   ar
    33    18    19   ar
    34    19    20    1
    35    19    21   ar
    36     9     1    1
    37    21    16   ar
    38     9     4    1
    39    38    31   ar
    40    12    13    1
    41    36    40    1
    42    20    22    1
    43    20    23    1
@<TRIPOS>MOLECULE
*****
 40 43 0 0 0
SMALL
GASTEIGER

@<TRIPOS>ATOM
      1 CA         62.7374   86.5558   12.2864 C.3     1  UNL1        0.1786
      2 C          62.3865   87.5222   11.1942 C.2     1  UNL1        0.2505
      3 O          61.6527   87.4274    9.8893 O.2     1  UNL1       -0.2726
      4 N          63.0732   88.6228   11.9473 N.am    1  UNL1       -0.2468
      5 CA         63.4925   90.0590   12.0534 C.2     1  UNL1        0.0623
      6 C          64.2627   90.5289   13.2517 C.2     1  UNL1       -0.0073
      7 C          64.6136   89.5625   14.3439 C.3     1  UNL1        0.0833
      8 S          64.1943   88.1262   14.2378 S.3     1  UNL1       -0.1142
      9 C          63.4242   87.6564   13.0395 C.3     1  UNL1        0.1548
     10 C          63.5636   84.2579   13.1734 C.2     1  UNL1        0.2687
     11 O          64.8648   84.8830   13.5809 O.2     1  UNL1       -0.2683
     12 N          62.4999   85.0942   12.5262 N.am    1  UNL1       -0.2914
     13 H          61.6459   84.6839   12.2587 H       1  UNL1        0.1503
     14 N          63.1445   82.2855   14.8118 N.2     1  UNL1       -0.0767
     15 C          63.3262   82.7963   13.4132 C.2     1  UNL1        0.1904
     16 C          63.2705   81.8456   12.2543 C.ar    1  UNL1        0.1150
     17 C          63.6736   82.1520   10.8423 C.ar    1  UNL1        0.0590
     18 S          63.4542   80.9173   10.0193 S.2     1  UNL1       -0.0514
     19 C          62.9156   79.8478   10.9227 C.ar    1  UNL1        0.1568
     20 N          62.5539   78.4499   10.5162 N.pl3   1  UNL1       -0.3375
     21 N          62.8020   80.4215   12.3040 N.ar    1  UNL1       -0.2227
     22 H          62.6643   78.1653    9.5802 H       1  UNL1        0.1442
     23 H          62.2061   77.8170   11.1853 H       1  UNL1        0.1442
     24 C          62.2747   84.4158   16.0180 C.3     1  UNL1        0.2885
     25 O          63.2002   83.2363   15.9706 O.2     1  UNL1       -0.3729
     26 C          63.1416   91.0254   10.9612 C.2     1  UNL1        0.0860
     27 O          64.2279   91.7515   10.2246 O.co2   1  UNL1       -0.5433
     28 OXT        61.7043   91.2657   10.6056 O.co2   1  UNL1       -0.5433
     29 C          64.6820   91.9652   13.3579 C.3     1  UNL1        0.0892
     30 S          66.1221   92.3417   13.1727 S.3     1  UNL1       -0.0713
     31 C          66.5183   93.2671   12.0607 C.ar    1  UNL1        0.1905
     32 N          65.8405   94.5972   11.9143 N.ar    1  UNL1       -0.1790
     33 C          66.2368   95.5226   10.8023 C.ar    1  UNL1        0.3356
     34 O          65.5591   96.8528   10.6559 O.2     1  UNL1       -0.2599
     35 C          67.3109   95.1179    9.8366 C.ar    1  UNL1        0.2980
     36 O          67.7071   96.0433    8.7246 O.3     1  UNL1       -0.4878
     37 N          67.9887   93.7878    9.9829 N.ar    1  UNL1       -0.1253
     38 N          67.5924   92.8624   11.0949 N.ar    1  UNL1       -0.2240
     39 C          68.2702   91.5323   11.2412 C.3     1  UNL1        0.1560
     40 H          67.2837   96.8742    8.6332 H       1  UNL1        0.2939
@<TRIPOS>UNITY_ATOM_ATTR
27 1
charge -1
@<TRIPOS>BOND
     1    24    25    1
     2    25    14    1
     3    14    15    2
     4    15    10    1
     5    10    11    2
     6    10    12   am
     7     1    12    1
     8     1     2    1
     9     2     3    2
    10     2     4   am
    11     4     5    1
    12     5    26    1
    13    26    27   ar
    14    26    28   ar
    15     5     6    2
    16     6    29    1
    17    29    30    1
    18    30    31    1
    19    31    32   ar
    20    32    33   ar
    21    33    34    2
    22    33    35   ar
    23    35    36    1
    24    35    37   ar
    25    37    38   ar
    26    38    39    1
    27     6     7    1
    28     7     8    1
    29     9     8    1
    30    15    16    1
    31    16    17   ar
    32    17    18   ar
    33    18    19   ar
    34    19    20    1
    35    19    21   ar
    36     9     1    1
    37    21    16   ar
    38     9     4    1
    39    38    31   ar
    40    12    13    1
    41    36    40    1
    42    20    22    1
    43    20    23    1
@<TRIPOS>MOLECULE
*****
 40 43 0 0 0
SMALL
GASTEIGER

@<TRIPOS>ATOM
      1 CA         61.9210   87.6428   10.2605 C.3     1  UNL1        0.1786
      2 C          62.3215   86.7225   11.3752 C.2     1  UNL1        0.2505
      3 O          62.1912   85.2507   11.6343 O.2     1  UNL1       -0.2726
      4 N          62.9063   87.8835   12.1236 N.am    1  UNL1       -0.2468
      5 CA         63.6130   88.4288   13.3291 C.2     1  UNL1        0.0623
      6 C          63.9192   89.8943   13.4198 C.2     1  UNL1       -0.0073
      7 C          63.5187   90.8146   12.3051 C.3     1  UNL1        0.0833
      8 S          62.8120   90.2694   11.0996 S.3     1  UNL1       -0.1142
      9 C          62.5058   88.8038   11.0089 C.3     1  UNL1        0.1548
     10 C          60.2158   88.4869    8.4914 C.2     1  UNL1        0.2687
     11 O          59.9039   89.6715    9.3572 O.2     1  UNL1       -0.2683
     12 N          61.2242   87.4726    8.9430 N.am    1  UNL1       -0.2914
     13 H          61.4289   86.6951    8.3748 H       1  UNL1        0.1503
     14 N          59.2300   86.9411    6.6505 N.2     1  UNL1       -0.0767
     15 C          59.5190   88.3167    7.1740 C.2     1  UNL1        0.1904
     16 C          59.1113   89.5223    6.3800 C.ar    1  UNL1        0.1150
     17 C          60.0394   90.5072    5.7331 C.ar    1  UNL1        0.0590
     18 S          59.2056   91.5482    5.0469 S.2     1  UNL1       -0.0514
     19 C          57.7621   91.2067    5.2697 C.ar    1  UNL1        0.1568
     20 N          56.5837   91.9813    4.7583 N.pl3   1  UNL1       -0.3375
     21 N          57.7038   89.9546    6.0936 N.ar    1  UNL1       -0.2227
     22 H          56.7245   92.7953    4.2228 H       1  UNL1        0.1442
     23 H          55.6694   91.6757    4.9582 H       1  UNL1        0.1442
     24 C          60.8300   84.9284    7.0235 C.3     1  UNL1        0.2885
     25 O          59.6378   85.7355    7.4444 O.2     1  UNL1       -0.3729
     26 C          64.0135   87.5085   14.4438 C.2     1  UNL1        0.0860
     27 O          63.6446   87.8401   15.8594 O.co2   1  UNL1       -0.5433
     28 OXT        64.7829   86.2565   14.1430 O.co2   1  UNL1       -0.5433
     29 C          64.6259   90.4397   14.6253 C.3     1  UNL1        0.0892
     30 S          65.9718   91.0852   14.4775 S.3     1  UNL1       -0.0713
     31 C          66.1111   92.3593   13.6984 C.ar    1  UNL1        0.1905
     32 N          65.6606   92.4174   12.2688 N.ar    1  UNL1       -0.1790
     33 C          65.7998   93.6916   11.4897 C.ar    1  UNL1        0.3356
     34 O          65.3494   93.7497   10.0601 O.2     1  UNL1       -0.2599
     35 C          66.3896   94.9078   12.1402 C.ar    1  UNL1        0.2980
     36 O          66.5288   96.1819   11.3611 O.3     1  UNL1       -0.4878
     37 N          66.8401   94.8497   13.5698 N.ar    1  UNL1       -0.1253
     38 N          66.7008   93.5756   14.3489 N.ar    1  UNL1       -0.2240
     39 C          67.1513   93.5175   15.7784 C.3     1  UNL1        0.1560
     40 H          66.2474   96.2182   10.4681 H       1  UNL1        0.2939
@<TRIPOS>UNITY_ATOM_ATTR
27 1
charge -1
@<TRIPOS>BOND
     1    24    25    1
     2    25    14    1
     3    14    15    2
     4    15    10    1
     5    10    11    2
     6    10    12   am
     7     1    12    1
     8     1     2    1
     9     2     3    2
    10     2     4   am
    11     4     5    1
    12     5    26    1
    13    26    27   ar
    14    26    28   ar
    15     5     6    2
    16     6    29    1
    17    29    30    1
    18    30    31    1
    19    31    32   ar
    20    32    33   ar
    21    33    34    2
    22    33    35   ar
    23    35    36    1
    24    35    37   ar
    25    37    38   ar
    26    38    39    1
    27     6     7    1
    28     7     8    1
    29     9     8    1
    30    15    16    1
    31    16    17   ar
    32    17    18   ar
    33    18    19   ar
    34    19    20    1
    35    19    21   ar
    36     9     1    1
    37    21    16   ar
    38     9     4    1
    39    38    31   ar
    40    12    13    1
    41    36    40    1
    42    20    22    1
    43    20    23    1
@<TRIPOS>MOLECULE
*****
 40 43 0 0 0
SMALL
GASTEIGER

@<TRIPOS>ATOM
      1 CA         62.4923   85.8713   11.5437 C.3     1  UNL1        0.1786
      2 C          62.6297   85.0012   10.3296 C.2     1  UNL1        0.2505
      3 O          63.3558   83.7270   10.0144 O.2     1  UNL1       -0.2726
      4 N          61.7402   85.9330    9.5612 N.am    1  UNL1       -0.2468
      5 CA         61.0385   86.3049    8.2887 C.2     1  UNL1        0.0623
      6 C          60.1995   87.5469    8.2303 C.2     1  UNL1       -0.0073
      7 C          60.0622   88.4170    9.4444 C.3     1  UNL1        0.0833
      8 S          60.7638   88.0451   10.7169 S.3     1  UNL1       -0.1142
      9 C          61.6028   86.8031   10.7753 C.3     1  UNL1        0.1548
     10 C          62.9092   84.5685   13.7525 C.2     1  UNL1        0.2687
     11 O          62.2622   83.3529   13.1577 O.2     1  UNL1       -0.2683
     12 N          63.0242   85.8276   12.9456 N.am    1  UNL1       -0.2914
     13 H          63.4489   86.6254   13.3360 H       1  UNL1        0.1503
     14 N          64.1949   83.3197   15.6334 N.2     1  UNL1       -0.0767
     15 C          63.4410   84.5248   15.1544 C.2     1  UNL1        0.1904
     16 C          63.2190   85.6863   16.0773 C.ar    1  UNL1        0.1150
     17 C          62.6959   85.6096   17.4810 C.ar    1  UNL1        0.0590
     18 S          62.6347   87.0042   18.0298 S.2     1  UNL1       -0.0514
     19 C          63.1201   87.9429   16.9652 C.ar    1  UNL1        0.1568
     20 N          63.2258   89.4343   17.0862 N.pl3   1  UNL1       -0.3375
     21 N          63.4813   87.1284   15.7585 N.ar    1  UNL1       -0.2227
     22 H          62.9632   89.8801   17.9237 H       1  UNL1        0.1442
     23 H          63.5579   89.9673   16.3280 H       1  UNL1        0.1442
     24 C          63.3711   81.0903   14.5840 C.3     1  UNL1        0.2885
     25 O          64.4169   82.1583   14.7105 O.2     1  UNL1       -0.3729
     26 C          61.1758   85.4348    7.0746 C.2     1  UNL1        0.0860
     27 O          59.9535   84.8637    6.4189 O.co2   1  UNL1       -0.5433
     28 OXT        62.5354   85.1357    6.5161 O.co2   1  UNL1       -0.5433
     29 C          59.4978   87.9189    6.9577 C.3     1  UNL1        0.0892
     30 S          58.7765   89.2300    6.8546 S.3     1  UNL1       -0.0713
     31 C          59.1814   90.2287    5.8112 C.ar    1  UNL1        0.1905
     32 N          60.6291   90.3986    5.4573 N.ar    1  UNL1       -0.1790
     33 C          61.0339   91.3973    4.4139 C.ar    1  UNL1        0.3356
     34 O          62.4817   91.5672    4.0600 O.2     1  UNL1       -0.2599
     35 C          59.9910   92.2261    3.7244 C.ar    1  UNL1        0.2980
     36 O          60.3959   93.2248    2.6810 O.3     1  UNL1       -0.4878
     37 N          58.5433   92.0562    4.0783 N.ar    1  UNL1       -0.1253
     38 N          58.1385   91.0576    5.1217 N.ar    1  UNL1       -0.2240
     39 C          56.6908   90.8877    5.4755 C.3     1  UNL1        0.1560
     40 H          61.3002   93.3309    2.4599 H       1  UNL1        0.2939
@<TRIPOS>UNITY_ATOM_ATTR
27 1
charge -1
@<TRIPOS>BOND
     1    24    25    1
     2    25    14    1
     3    14    15    2
     4    15    10    1
     5    10    11    2
     6    10    12   am
     7     1    12    1
     8     1     2    1
     9     2     3    2
    10     2     4   am
    11     4     5    1
    12     5    26    1
    13    26    27   ar
    14    26    28   ar
    15     5     6    2
    16     6    29    1
    17    29    30    1
    18    30    31    1
    19    31    32   ar
    20    32    33   ar
    21    33    34    2
    22    33    35   ar
    23    35    36    1
    24    35    37   ar
    25    37    38   ar
    26    38    39    1
    27     6     7    1
    28     7     8    1
    29     9     8    1
    30    15    16    1
    31    16    17   ar
    32    17    18   ar
    33    18    19   ar
    34    19    20    1
    35    19    21   ar
    36     9     1    1
    37    21    16   ar
    38     9     4    1
    39    38    31   ar
    40    12    13    1
    41    36    40    1
    42    20    22    1
    43    20    23    1
@<TRIPOS>MOLECULE
*****
 40 43 0 0 0
SMALL
GASTEIGER

@<TRIPOS>ATOM
      1 CA         63.7040   90.6580   11.9546 C.3     1  UNL1        0.1786
      2 C          62.9246   90.5790   10.6754 C.2     1  UNL1        0.2505
      3 O          62.5470   91.5557    9.6013 O.2     1  UNL1       -0.2726
      4 N          62.6792   89.1187   10.9151 N.am    1  UNL1       -0.2468
      5 CA         62.0770   87.8147   10.4832 C.2     1  UNL1        0.0623
      6 C          62.2541   86.5896   11.3304 C.2     1  UNL1       -0.0073
      7 C          63.0335   86.6686   12.6096 C.3     1  UNL1        0.0833
      8 S          63.6358   87.9727   13.0415 S.3     1  UNL1       -0.1142
      9 C          63.4586   89.1978   12.1943 C.3     1  UNL1        0.1548
     10 C          65.5584   92.4762   12.0256 C.2     1  UNL1        0.2687
     11 O          65.9636   92.1177   10.6266 O.2     1  UNL1       -0.2683
     12 N          64.4287   91.7465   12.6896 N.am    1  UNL1       -0.2914
     13 H          64.1628   91.9818   13.6078 H       1  UNL1        0.1503
     14 N          66.3627   94.9423   12.1726 N.2     1  UNL1       -0.0767
     15 C          66.2831   93.5647   12.7606 C.2     1  UNL1        0.1904
     16 C          66.9282   93.2754   14.0835 C.ar    1  UNL1        0.1150
     17 C          66.2138   93.0653   15.3856 C.ar    1  UNL1        0.0590
     18 S          67.2449   92.8055   16.4435 S.2     1  UNL1       -0.0514
     19 C          68.5967   92.8551   15.7952 C.ar    1  UNL1        0.1568
     20 N          69.9132   92.6503   16.4844 N.pl3   1  UNL1       -0.3375
     21 N          68.4010   93.1455   14.3366 N.ar    1  UNL1       -0.2227
     22 H          69.9391   92.4636   17.4507 H       1  UNL1        0.1442
     23 H          70.7513   92.7025   15.9705 H       1  UNL1        0.1442
     24 C          66.5646   95.5898    9.6647 C.3     1  UNL1        0.2885
     25 O          65.7176   95.2316   10.8497 O.2     1  UNL1       -0.3729
     26 C          61.2976   87.7356    9.2040 C.2     1  UNL1        0.0860
     27 O          60.2724   88.7829    8.8844 O.co2   1  UNL1       -0.5433
     28 OXT        61.5434   86.6093    8.2444 O.co2   1  UNL1       -0.5433
     29 C          61.6519   85.2854   10.8984 C.3     1  UNL1        0.0892
     30 S          62.5315   84.0918   10.6714 S.3     1  UNL1       -0.0713
     31 C          62.7092   83.0735   11.7583 C.ar    1  UNL1        0.1905
     32 N          62.5989   83.4847   13.1966 N.ar    1  UNL1       -0.1790
     33 C          62.7766   82.4663   14.2836 C.ar    1  UNL1        0.3356
     34 O          62.6662   82.8775   15.7219 O.2     1  UNL1       -0.2599
     35 C          63.0646   81.0368   13.9322 C.ar    1  UNL1        0.2980
     36 O          63.2423   80.0185   15.0191 O.3     1  UNL1       -0.4878
     37 N          63.1750   80.6256   12.4939 N.ar    1  UNL1       -0.1253
     38 N          62.9973   81.6439   11.4070 N.ar    1  UNL1       -0.2240
     39 C          63.1077   81.2327    9.9687 C.3     1  UNL1        0.1560
     40 H          63.1734   80.2754   15.9176 H       1  UNL1        0.2939
@<TRIPOS>UNITY_ATOM_ATTR
27 1
charge -1
@<TRIPOS>BOND
     1    24    25    1
     2    25    14    1
     3    14    15    2
     4    15    10    1
     5    10    11    2
     6    10    12   am
     7     1    12    1
     8     1     2    1
     9     2     3    2
    10     2     4   am
    11     4     5    1
    12     5    26    1
    13    26    27   ar
    14    26    28   ar
    15     5     6    2
    16     6    29    1
    17    29    30    1
    18    30    31    1
    19    31    32   ar
    20    32    33   ar
    21    33    34    2
    22    33    35   ar
    23    35    36    1
    24    35    37   ar
    25    37    38   ar
    26    38    39    1
    27     6     7    1
    28     7     8    1
    29     9     8    1
    30    15    16    1
    31    16    17   ar
    32    17    18   ar
    33    18    19   ar
    34    19    20    1
    35    19    21   ar
    36     9     1    1
    37    21    16   ar
    38     9     4    1
    39    38    31   ar
    40    12    13    1
    41    36    40    1
    42    20    22    1
    43    20    23    1
@<TRIPOS>MOLECULE
*****
 40 43 0 0 0
SMALL
GASTEIGER

@<TRIPOS>ATOM
      1 CA         64.2041   90.2562   15.1664 C.3     1  UNL1        0.1786
      2 C          63.2425   89.9119   16.2649 C.2     1  UNL1        0.2505
      3 O          62.4062   90.7009   17.2284 O.2     1  UNL1       -0.2726
      4 N          63.4636   88.4520   16.0010 N.am    1  UNL1       -0.2468
      5 CA         63.1743   87.0156   16.3216 C.2     1  UNL1        0.0623
      6 C          63.8465   85.9234   15.5438 C.2     1  UNL1       -0.0073
      7 C          64.8081   86.2676   14.4452 C.3     1  UNL1        0.0833
      8 S          65.0974   87.7041   14.1245 S.3     1  UNL1       -0.1142
      9 C          64.4252   88.7962   14.9024 C.3     1  UNL1        0.1548
     10 C          66.2067   91.7613   14.4779 C.2     1  UNL1        0.2687
     11 O          67.1623   90.7148   14.9697 O.2     1  UNL1       -0.2683
     12 N          64.7277   91.5320   14.5762 N.am    1  UNL1       -0.2914
     13 H          64.1006   92.2188   14.2534 H       1  UNL1        0.1503
     14 N          67.6377   93.9191   14.6932 N.2     1  UNL1       -0.0767
     15 C          66.7304   93.0370   13.8878 C.2     1  UNL1        0.1904
     16 C          66.3468   93.4306   12.4921 C.ar    1  UNL1        0.1150
     17 C          66.1498   92.4964   11.3351 C.ar    1  UNL1        0.0590
     18 S          65.7741   93.3159   10.1363 S.2     1  UNL1       -0.0514
     19 C          65.7390   94.7567   10.5523 C.ar    1  UNL1        0.1568
     20 N          65.4080   95.9220    9.6677 N.pl3   1  UNL1       -0.3375
     21 N          66.0929   94.8276   12.0083 N.ar    1  UNL1       -0.2227
     22 H          65.1874   95.7734    8.7198 H       1  UNL1        0.1442
     23 H          65.4114   96.8354   10.0350 H       1  UNL1        0.1442
     24 C          69.2691   92.7279   16.3270 C.3     1  UNL1        0.2885
     25 O          68.0212   93.5255   16.0889 O.2     1  UNL1       -0.3729
     26 C          62.2127   86.6713   17.4202 C.2     1  UNL1        0.0860
     27 O          62.6236   86.8309   18.8539 O.co2   1  UNL1       -0.5433
     28 OXT        60.8402   86.1674   17.0850 O.co2   1  UNL1       -0.5433
     29 C          63.5572   84.4868   15.8644 C.3     1  UNL1        0.0892
     30 S          62.7155   83.6654   14.9334 S.3     1  UNL1       -0.0713
     31 C          62.8497   83.8400   13.4497 C.ar    1  UNL1        0.1905
     32 N          62.3183   85.0774   12.7890 N.ar    1  UNL1       -0.1790
     33 C          62.4525   85.2519   11.3052 C.ar    1  UNL1        0.3356
     34 O          61.9212   86.4893   10.6445 O.2     1  UNL1       -0.2599
     35 C          63.1180   84.1891   10.4822 C.ar    1  UNL1        0.2980
     36 O          63.2522   84.3636    8.9985 O.3     1  UNL1       -0.4878
     37 N          63.6494   82.9517   11.1429 N.ar    1  UNL1       -0.1253
     38 N          63.5152   82.7771   12.6266 N.ar    1  UNL1       -0.2240
     39 C          64.0465   81.5397   13.2873 C.3     1  UNL1        0.1560
     40 H          62.9203   85.1366    8.5858 H       1  UNL1        0.2939
@<TRIPOS>UNITY_ATOM_ATTR
27 1
charge -1
@<TRIPOS>BOND
     1    24    25    1
     2    25    14    1
     3    14    15    2
     4    15    10    1
     5    10    11    2
     6    10    12   am
     7     1    12    1
     8     1     2    1
     9     2     3    2
    10     2     4   am
    11     4     5    1
    12     5    26    1
    13    26    27   ar
    14    26    28   ar
    15     5     6    2
    16     6    29    1
    17    29    30    1
    18    30    31    1
    19    31    32   ar
    20    32    33   ar
    21    33    34    2
    22    33    35   ar
    23    35    36    1
    24    35    37   ar
    25    37    38   ar
    26    38    39    1
    27     6     7    1
    28     7     8    1
    29     9     8    1
    30    15    16    1
    31    16    17   ar
    32    17    18   ar
    33    18    19   ar
    34    19    20    1
    35    19    21   ar
    36     9     1    1
    37    21    16   ar
    38     9     4    1
    39    38    31   ar
    40    12    13    1
    41    36    40    1
    42    20    22    1
    43    20    23    1
