@<TRIPOS>MOLECULE
*****
 39 41 0 0 0
SMALL
GASTEIGER

@<TRIPOS>ATOM
      1 C          68.6976   93.9602   16.2445 C.3     1  UNL1        0.0310
      2 C          67.6446   93.2874   15.4146 C.ar    1  UNL1       -0.0220
      3 C          66.5123   92.5645   16.0818 C.ar    1  UNL1       -0.0030
      4 C          65.4593   91.8917   15.2519 C.ar    1  UNL1        0.0139
      5 C          65.5387   91.9419   13.7549 C.ar    1  UNL1        0.0454
      6 C          66.6710   92.6648   13.0877 C.ar    1  UNL1        0.0085
      7 C          67.7240   93.3376   13.9176 C.ar    1  UNL1       -0.0057
      8 N          64.4858   91.2691   12.9250 N.pl3   1  UNL1       -0.3043
      9 C          63.6022   90.2235   13.5382 C.3     1  UNL1        0.1123
     10 C          62.5492   89.5507   12.7083 C.3     1  UNL1        0.1148
     11 N          62.3799   89.9236   11.2653 N.am    1  UNL1       -0.2760
     12 C          61.3269   89.2508   10.4354 C.2     1  UNL1        0.2256
     13 O          61.1575   89.6236    8.9925 O.2     1  UNL1       -0.2749
     14 C          63.2634   90.9692   10.6522 C.3     1  UNL1        0.1148
     15 C          64.3164   91.6419   11.4821 C.3     1  UNL1        0.1123
     16 C          60.4433   88.2052   11.0486 C.3     1  UNL1        0.0811
     17 C          59.1897   88.6095   11.7663 C.3     1  UNL1        0.0099
     18 C          60.8133   86.7553   10.9440 C.3     1  UNL1        0.0351
     19 C          61.2406   86.1835    9.6248 C.ar    1  UNL1       -0.0256
     20 C          62.5982   85.5618    9.4811 C.ar    1  UNL1       -0.0037
     21 C          63.0254   84.9900    8.1619 C.ar    1  UNL1        0.0111
     22 C          62.0952   85.0399    6.9862 C.ar    1  UNL1        0.0573
     23 CL         62.5225   84.4682    5.6670 Cl      1  UNL1       -0.0823
     24 C          60.7377   85.6616    7.1298 C.ar    1  UNL1        0.0068
     25 C          60.3104   86.2334    8.4491 C.ar    1  UNL1       -0.0249
     26 C          58.9529   86.8551    8.5927 C.3     1  UNL1        0.0307
     27 C          66.7505   92.7150   11.5906 C.3     1  UNL1        0.0951
     28 N          65.7052   93.4538   10.8085 N.am    1  UNL1       -0.3021
     29 C          65.8371   94.9318   10.5899 C.2     1  UNL1        0.2241
     30 O          67.0144   95.6712   11.1533 O.2     1  UNL1       -0.2750
     31 H          64.9326   92.9685   10.4387 H       1  UNL1        0.1497
     32 C          64.7919   95.6706    9.8077 C.3     1  UNL1        0.1023
     33 C          65.1777   96.8559    8.9733 C.3     1  UNL1        0.0818
     34 N          66.1427   96.6908    7.8368 N.3     1  UNL1       -0.2699
     35 C          67.6192   96.7684    8.0894 C.3     1  UNL1        0.0897
     36 C          65.6311   96.4482    6.4478 C.3     1  UNL1        0.0897
     37 C          67.8751   92.0265   10.8757 C.3     1  UNL1        0.0223
     38 C          68.0052   92.1514    9.3866 C.3     1  UNL1        0.0020
     39 C          68.8696   91.2131   11.6499 C.3     1  UNL1        0.0020
@<TRIPOS>BOND
     1     1     2    1
     2     2     3   ar
     3     3     4   ar
     4     4     5   ar
     5     5     8    1
     6     8     9    1
     7     9    10    1
     8    10    11    1
     9    11    12   am
    10    12    13    2
    11    12    16    1
    12    16    17    1
    13    16    18    1
    14    18    19    1
    15    19    20   ar
    16    20    21   ar
    17    21    22   ar
    18    22    23    1
    19    22    24   ar
    20    24    25   ar
    21    25    26    1
    22    11    14    1
    23    14    15    1
    24     5     6   ar
    25     6    27    1
    26    27    28    1
    27    28    29   am
    28    29    30    2
    29    29    32    1
    30    32    33    1
    31    33    34    1
    32    34    35    1
    33    34    36    1
    34    27    37    1
    35    37    38    1
    36    37    39    1
    37     6     7   ar
    38     7     2   ar
    39    15     8    1
    40    25    19   ar
    41    28    31    1
@<TRIPOS>MOLECULE
*****
 39 41 0 0 0
SMALL
GASTEIGER

@<TRIPOS>ATOM
      1 C          58.7100   89.7344    6.0334 C.3     1  UNL1        0.0310
      2 C          59.4081   88.9043    7.0696 C.ar    1  UNL1       -0.0220
      3 C          59.8122   87.4947    6.7538 C.ar    1  UNL1       -0.0030
      4 C          60.5102   86.6646    7.7900 C.ar    1  UNL1        0.0139
      5 C          60.8042   87.2440    9.1419 C.ar    1  UNL1        0.0454
      6 C          60.4001   88.6536    9.4577 C.ar    1  UNL1        0.0085
      7 C          59.7020   89.4837    8.4215 C.ar    1  UNL1       -0.0057
      8 N          61.5022   86.4139   10.1781 N.pl3   1  UNL1       -0.3043
      9 C          61.1603   86.5821   11.6288 C.3     1  UNL1        0.1123
     10 C          61.8584   85.7519   12.6650 C.3     1  UNL1        0.1148
     11 N          62.8983   84.7536   12.2504 N.am    1  UNL1       -0.2760
     12 C          63.5964   83.9235   13.2865 C.2     1  UNL1        0.2256
     13 O          64.6363   82.9252   12.8719 O.2     1  UNL1       -0.2749
     14 C          63.2402   84.5855   10.7996 C.3     1  UNL1        0.1148
     15 C          62.5421   85.4156    9.7635 C.3     1  UNL1        0.1123
     16 C          63.2545   84.0917   14.7373 C.3     1  UNL1        0.0811
     17 C          62.0362   83.4241   15.3030 C.3     1  UNL1        0.0099
     18 C          64.1310   84.9274   15.6225 C.3     1  UNL1        0.0351
     19 C          63.9713   86.4187   15.6435 C.ar    1  UNL1       -0.0256
     20 C          64.5545   87.2511   14.5403 C.ar    1  UNL1       -0.0037
     21 C          64.3949   88.7424   14.5613 C.ar    1  UNL1        0.0111
     22 C          63.6520   89.4014   15.6855 C.ar    1  UNL1        0.0573
     23 CL         63.4923   90.8927   15.7065 Cl      1  UNL1       -0.0823
     24 C          63.0688   88.5691   16.7887 C.ar    1  UNL1        0.0068
     25 C          63.2284   87.0777   16.7677 C.ar    1  UNL1       -0.0249
     26 C          62.6452   86.2454   17.8709 C.3     1  UNL1        0.0307
     27 C          60.6940   89.2331   10.8097 C.3     1  UNL1        0.0951
     28 N          62.1132   89.3619   11.2780 N.am    1  UNL1       -0.3021
     29 C          62.9247   90.5625   10.8908 C.2     1  UNL1        0.2241
     30 O          62.3170   91.6344   10.0352 O.2     1  UNL1       -0.2750
     31 H          62.5120   88.6585   11.8396 H       1  UNL1        0.1497
     32 C          64.3439   90.6914   11.3592 C.3     1  UNL1        0.1023
     33 C          64.7126   91.7542   12.3514 C.3     1  UNL1        0.0818
     34 N          65.9272   92.6043   12.1233 N.3     1  UNL1       -0.2699
     35 C          66.5225   92.7086   10.7505 C.3     1  UNL1        0.0897
     36 C          66.5465   93.3501   13.2680 C.3     1  UNL1        0.0897
     37 C          59.5688   89.6837   11.6933 C.3     1  UNL1        0.0223
     38 C          59.0367   91.0814   11.5762 C.3     1  UNL1        0.0020
     39 C          58.9756   88.7368   12.6940 C.3     1  UNL1        0.0020
@<TRIPOS>BOND
     1     1     2    1
     2     2     3   ar
     3     3     4   ar
     4     4     5   ar
     5     5     8    1
     6     8     9    1
     7     9    10    1
     8    10    11    1
     9    11    12   am
    10    12    13    2
    11    12    16    1
    12    16    17    1
    13    16    18    1
    14    18    19    1
    15    19    20   ar
    16    20    21   ar
    17    21    22   ar
    18    22    23    1
    19    22    24   ar
    20    24    25   ar
    21    25    26    1
    22    11    14    1
    23    14    15    1
    24     5     6   ar
    25     6    27    1
    26    27    28    1
    27    28    29   am
    28    29    30    2
    29    29    32    1
    30    32    33    1
    31    33    34    1
    32    34    35    1
    33    34    36    1
    34    27    37    1
    35    37    38    1
    36    37    39    1
    37     6     7   ar
    38     7     2   ar
    39    15     8    1
    40    25    19   ar
    41    28    31    1
@<TRIPOS>MOLECULE
*****
 39 41 0 0 0
SMALL
GASTEIGER

@<TRIPOS>ATOM
      1 C          58.6143   90.2385    6.3702 C.3     1  UNL1        0.0310
      2 C          59.3631   89.2035    7.1565 C.ar    1  UNL1       -0.0220
      3 C          59.1703   87.7471    6.8538 C.ar    1  UNL1       -0.0030
      4 C          59.9191   86.7122    7.6401 C.ar    1  UNL1        0.0139
      5 C          60.8607   87.1337    8.7289 C.ar    1  UNL1        0.0454
      6 C          61.0536   88.5901    9.0315 C.ar    1  UNL1        0.0085
      7 C          60.3047   89.6250    8.2453 C.ar    1  UNL1       -0.0057
      8 N          61.6096   86.0987    9.5151 N.pl3   1  UNL1       -0.3043
      9 C          61.0747   85.6273   10.8348 C.3     1  UNL1        0.1123
     10 C          61.8236   84.5923   11.6211 C.3     1  UNL1        0.1148
     11 N          63.1072   84.0288   11.0876 N.am    1  UNL1       -0.2760
     12 C          63.8561   82.9939   11.8738 C.2     1  UNL1        0.2256
     13 O          65.1397   82.4304   11.3404 O.2     1  UNL1       -0.2749
     14 C          63.6421   84.5003    9.7679 C.3     1  UNL1        0.1148
     15 C          62.8932   85.5352    8.9817 C.3     1  UNL1        0.1123
     16 C          63.3212   82.5225   13.1935 C.3     1  UNL1        0.0811
     17 C          62.0638   81.7062   13.2448 C.3     1  UNL1        0.0099
     18 C          64.0438   82.8672   14.4620 C.3     1  UNL1        0.0351
     19 C          63.7677   84.1701   15.1521 C.ar    1  UNL1       -0.0256
     20 C          62.5307   84.3302   15.9853 C.ar    1  UNL1       -0.0037
     21 C          62.2546   85.6331   16.6754 C.ar    1  UNL1        0.0111
     22 C          63.2155   86.7760   16.5322 C.ar    1  UNL1        0.0573
     23 CL         62.9394   88.0788   17.2223 Cl      1  UNL1       -0.0823
     24 C          64.4525   86.6160   15.6990 C.ar    1  UNL1        0.0068
     25 C          64.7286   85.3130   15.0089 C.ar    1  UNL1       -0.0249
     26 C          65.9656   85.1530   14.1758 C.3     1  UNL1        0.0307
     27 C          61.9953   89.0116   10.1204 C.3     1  UNL1        0.0951
     28 N          63.1901   89.8572    9.7929 N.am    1  UNL1       -0.3021
     29 C          63.5203   91.0496   10.6408 C.2     1  UNL1        0.2241
     30 O          62.6555   91.3965   11.8164 O.2     1  UNL1       -0.2750
     31 H          63.7577   89.6295    9.0213 H       1  UNL1        0.1497
     32 C          64.7151   91.8952   10.3133 C.3     1  UNL1        0.1023
     33 C          65.3485   92.7426   11.3767 C.3     1  UNL1        0.0818
     34 N          66.2643   93.8669   10.9933 N.3     1  UNL1       -0.2699
     35 C          66.1548   95.1929   11.6859 C.3     1  UNL1        0.0897
     36 C          67.2898   93.6653    9.9172 C.3     1  UNL1        0.0897
     37 C          61.7421   88.5876   11.5367 C.3     1  UNL1        0.0223
     38 C          62.8490   87.9812   12.3474 C.3     1  UNL1        0.0020
     39 C          60.3820   88.7699   12.1425 C.3     1  UNL1        0.0020
@<TRIPOS>BOND
     1     1     2    1
     2     2     3   ar
     3     3     4   ar
     4     4     5   ar
     5     5     8    1
     6     8     9    1
     7     9    10    1
     8    10    11    1
     9    11    12   am
    10    12    13    2
    11    12    16    1
    12    16    17    1
    13    16    18    1
    14    18    19    1
    15    19    20   ar
    16    20    21   ar
    17    21    22   ar
    18    22    23    1
    19    22    24   ar
    20    24    25   ar
    21    25    26    1
    22    11    14    1
    23    14    15    1
    24     5     6   ar
    25     6    27    1
    26    27    28    1
    27    28    29   am
    28    29    30    2
    29    29    32    1
    30    32    33    1
    31    33    34    1
    32    34    35    1
    33    34    36    1
    34    27    37    1
    35    37    38    1
    36    37    39    1
    37     6     7   ar
    38     7     2   ar
    39    15     8    1
    40    25    19   ar
    41    28    31    1
@<TRIPOS>MOLECULE
*****
 39 41 0 0 0
SMALL
GASTEIGER

@<TRIPOS>ATOM
      1 C          58.6428   86.7106    7.4458 C.3     1  UNL1        0.0310
      2 C          59.5496   87.4487    8.3854 C.ar    1  UNL1       -0.0220
      3 C          59.5093   88.9469    8.4447 C.ar    1  UNL1       -0.0030
      4 C          60.4162   89.6850    9.3844 C.ar    1  UNL1        0.0139
      5 C          61.3632   88.9248   10.2648 C.ar    1  UNL1        0.0454
      6 C          61.4035   87.4265   10.2055 C.ar    1  UNL1        0.0085
      7 C          60.4967   86.6885    9.2658 C.ar    1  UNL1       -0.0057
      8 N          62.2700   89.6628   11.2044 N.pl3   1  UNL1       -0.3043
      9 C          63.3962   90.4927   10.6631 C.3     1  UNL1        0.1123
     10 C          64.3030   91.2308   11.6028 C.3     1  UNL1        0.1148
     11 N          64.0837   91.1390   13.0838 N.am    1  UNL1       -0.2760
     12 C          64.9905   91.8770   14.0234 C.2     1  UNL1        0.2256
     13 O          64.7711   91.7852   15.5044 O.2     1  UNL1       -0.2749
     14 C          62.9575   90.3091   13.6251 C.3     1  UNL1        0.1148
     15 C          62.0507   89.5710   12.6854 C.3     1  UNL1        0.1123
     16 C          66.1166   92.7069   13.4821 C.3     1  UNL1        0.0811
     17 C          66.6909   93.8208   14.3063 C.3     1  UNL1        0.0099
     18 C          66.6684   92.4229   12.1165 C.3     1  UNL1        0.0351
     19 C          66.7892   93.5297   11.1113 C.ar    1  UNL1       -0.0256
     20 C          66.1309   94.8526   11.3696 C.ar    1  UNL1       -0.0037
     21 C          66.2516   95.9594   10.3644 C.ar    1  UNL1        0.0111
     22 C          67.0307   95.7434    9.1010 C.ar    1  UNL1        0.0573
     23 CL         67.1515   96.8502    8.0958 Cl      1  UNL1       -0.0823
     24 C          67.6890   94.4206    8.8426 C.ar    1  UNL1        0.0068
     25 C          67.5682   93.3137    9.8478 C.ar    1  UNL1       -0.0249
     26 C          68.2265   91.9909    9.5895 C.3     1  UNL1        0.0307
     27 C          62.3506   86.6662   11.0859 C.3     1  UNL1        0.0951
     28 N          62.9285   87.3195   12.3062 N.am    1  UNL1       -0.3021
     29 C          63.6896   86.5005   13.3062 C.2     1  UNL1        0.2241
     30 O          63.8728   85.0281   13.0858 O.2     1  UNL1       -0.2750
     31 H          62.8082   88.2859   12.4509 H       1  UNL1        0.1497
     32 C          64.2674   87.1538   14.5265 C.3     1  UNL1        0.1023
     33 C          64.0321   86.5538   15.8810 C.3     1  UNL1        0.0818
     34 N          63.2056   87.2893   16.8939 N.3     1  UNL1       -0.2699
     35 C          63.0979   88.7841   16.8311 C.3     1  UNL1        0.0897
     36 C          62.4869   86.5300   17.9695 C.3     1  UNL1        0.0897
     37 C          62.7199   85.2527   10.7459 C.3     1  UNL1        0.0223
     38 C          62.3116   84.1315   11.6549 C.3     1  UNL1        0.0020
     39 C          63.4973   84.9604    9.4968 C.3     1  UNL1        0.0020
@<TRIPOS>BOND
     1     1     2    1
     2     2     3   ar
     3     3     4   ar
     4     4     5   ar
     5     5     8    1
     6     8     9    1
     7     9    10    1
     8    10    11    1
     9    11    12   am
    10    12    13    2
    11    12    16    1
    12    16    17    1
    13    16    18    1
    14    18    19    1
    15    19    20   ar
    16    20    21   ar
    17    21    22   ar
    18    22    23    1
    19    22    24   ar
    20    24    25   ar
    21    25    26    1
    22    11    14    1
    23    14    15    1
    24     5     6   ar
    25     6    27    1
    26    27    28    1
    27    28    29   am
    28    29    30    2
    29    29    32    1
    30    32    33    1
    31    33    34    1
    32    34    35    1
    33    34    36    1
    34    27    37    1
    35    37    38    1
    36    37    39    1
    37     6     7   ar
    38     7     2   ar
    39    15     8    1
    40    25    19   ar
    41    28    31    1
@<TRIPOS>MOLECULE
*****
 39 41 0 0 0
SMALL
GASTEIGER

@<TRIPOS>ATOM
      1 C          65.0178   95.4131   -1.1294 C.3     1  UNL1        0.0310
      2 C          64.1348   94.7169   -0.1366 C.ar    1  UNL1       -0.0220
      3 C          64.7242   93.7353    0.8323 C.ar    1  UNL1       -0.0030
      4 C          63.8412   93.0391    1.8251 C.ar    1  UNL1        0.0139
      5 C          62.3688   93.3246    1.8490 C.ar    1  UNL1        0.0454
      6 C          61.7795   94.3062    0.8800 C.ar    1  UNL1        0.0085
      7 C          62.6624   95.0024   -0.1128 C.ar    1  UNL1       -0.0057
      8 N          61.4858   92.6284    2.8417 N.pl3   1  UNL1       -0.3043
      9 C          62.0590   91.5823    3.7512 C.3     1  UNL1        0.1123
     10 C          61.1760   90.8861    4.7440 C.3     1  UNL1        0.1148
     11 N          59.7198   91.2360    4.8273 N.am    1  UNL1       -0.2760
     12 C          58.8368   90.5398    5.8201 C.2     1  UNL1        0.2256
     13 O          57.3806   90.8897    5.9035 O.2     1  UNL1       -0.2749
     14 C          59.1466   92.2820    3.9179 C.3     1  UNL1        0.1148
     15 C          60.0296   92.9782    2.9251 C.3     1  UNL1        0.1123
     16 C          59.4100   89.4937    6.7295 C.3     1  UNL1        0.0811
     17 C          59.3846   88.0503    6.3223 C.3     1  UNL1        0.0099
     18 C          60.0087   89.8910    8.0463 C.3     1  UNL1        0.0351
     19 C          60.6025   88.8477    8.9456 C.ar    1  UNL1       -0.0256
     20 C          60.1422   87.4233    8.8480 C.ar    1  UNL1       -0.0037
     21 C          60.7360   86.3799    9.7472 C.ar    1  UNL1        0.0111
     22 C          61.7901   86.7608   10.7441 C.ar    1  UNL1        0.0573
     23 CL         62.3840   85.7174   11.6434 Cl      1  UNL1       -0.0823
     24 C          62.2505   88.1851   10.8417 C.ar    1  UNL1        0.0068
     25 C          61.6566   89.2285    9.9424 C.ar    1  UNL1       -0.0249
     26 C          62.1170   90.6528   10.0401 C.3     1  UNL1        0.0307
     27 C          60.3070   94.5917    0.9038 C.3     1  UNL1        0.0951
     28 N          59.3277   93.5107    0.5540 N.am    1  UNL1       -0.3021
     29 C          58.9690   93.2591   -0.8805 C.2     1  UNL1        0.2241
     30 O          59.5896   94.0886   -1.9654 O.2     1  UNL1       -0.2750
     31 H          58.9204   92.9663    1.2660 H       1  UNL1        0.1497
     32 C          57.9897   92.1781   -1.2303 C.3     1  UNL1        0.1023
     33 C          56.6186   92.5382   -1.7206 C.3     1  UNL1        0.0818
     34 N          56.3347   92.5766   -3.1930 N.3     1  UNL1       -0.2699
     35 C          56.0156   91.3089   -3.9286 C.3     1  UNL1        0.0897
     36 C          56.3698   93.8827   -3.9298 C.3     1  UNL1        0.0897
     37 C          59.8140   95.9582    1.2773 C.3     1  UNL1        0.0223
     38 C          60.1600   96.5405    2.6157 C.3     1  UNL1        0.0020
     39 C          58.9749   96.7425    0.3125 C.3     1  UNL1        0.0020
@<TRIPOS>BOND
     1     1     2    1
     2     2     3   ar
     3     3     4   ar
     4     4     5   ar
     5     5     8    1
     6     8     9    1
     7     9    10    1
     8    10    11    1
     9    11    12   am
    10    12    13    2
    11    12    16    1
    12    16    17    1
    13    16    18    1
    14    18    19    1
    15    19    20   ar
    16    20    21   ar
    17    21    22   ar
    18    22    23    1
    19    22    24   ar
    20    24    25   ar
    21    25    26    1
    22    11    14    1
    23    14    15    1
    24     5     6   ar
    25     6    27    1
    26    27    28    1
    27    28    29   am
    28    29    30    2
    29    29    32    1
    30    32    33    1
    31    33    34    1
    32    34    35    1
    33    34    36    1
    34    27    37    1
    35    37    38    1
    36    37    39    1
    37     6     7   ar
    38     7     2   ar
    39    15     8    1
    40    25    19   ar
    41    28    31    1
