@<TRIPOS>MOLECULE
*****
 19 22 0 0 0
SMALL
GASTEIGER

@<TRIPOS>ATOM
      1 C          64.4343   82.3533   12.2365 C.ar    1  UNL1       -0.0000
      2 C          63.5335   83.0345   13.2235 C.ar    1  UNL1       -0.0000
      3 C          62.6470   84.1595   12.7779 C.ar    1  UNL1       -0.0000
      4 C          62.6614   84.6032   11.3451 C.ar    1  UNL1       -0.0003
      5 C          61.7749   85.7281   10.8994 C.ar    1  UNL1       -0.0042
      6 C          61.7892   86.1718    9.4666 C.ar    1  UNL1       -0.0215
      7 C          62.6901   85.4906    8.4795 C.ar    1  UNL1       -0.0042
      8 C          63.5765   84.3656    8.9251 C.ar    1  UNL1       -0.0003
      9 C          63.5622   83.9219   10.3580 C.ar    1  UNL1       -0.0000
     10 C          64.4487   82.7970   10.8037 C.ar    1  UNL1       -0.0000
     11 C          60.9027   87.2968    9.0210 C.3     1  UNL1        0.0347
     12 C          61.9504   87.8651    9.9315 C.3     1  UNL1        0.0054
     13 C          61.7115   89.3413   10.0487 C.3     1  UNL1        0.0004
     14 C          60.5161   89.6853    9.2104 C.3     1  UNL1        0.0017
     15 C          60.0162   88.4217    8.5753 C.3     1  UNL1        0.0208
     16 C          58.9685   87.8534    7.6646 C.3     1  UNL1        0.0689
     17 N          59.2075   86.3772    7.5475 N.3     1  UNL1       -0.2972
     18 C          60.4029   86.0332    8.3858 C.3     1  UNL1        0.0726
     19 H          59.3853   86.1315    6.5736 H       1  UNL1        0.1233
@<TRIPOS>BOND
     1     1     2   ar
     2     2     3   ar
     3     3     4   ar
     4     4     5   ar
     5     5     6   ar
     6    11     6    1
     7    11    12    1
     8    12    13    1
     9    13    14    1
    10    15    14    1
    11    15    16    1
    12    16    17    1
    13    17    18    1
    14     6     7   ar
    15     7     8   ar
    16     8     9   ar
    17     9    10   ar
    18    10     1   ar
    19     9     4   ar
    20    15    11    1
    21    18    11    1
    22    17    19    1
@<TRIPOS>MOLECULE
*****
 19 22 0 0 0
SMALL
GASTEIGER

@<TRIPOS>ATOM
      1 C          64.3725   82.2536   12.1347 C.ar    1  UNL1       -0.0000
      2 C          63.5263   82.9463   13.1613 C.ar    1  UNL1       -0.0000
      3 C          62.6796   84.1200   12.7672 C.ar    1  UNL1       -0.0000
      4 C          62.6790   84.6010   11.3465 C.ar    1  UNL1       -0.0003
      5 C          61.8322   85.7748   10.9524 C.ar    1  UNL1       -0.0042
      6 C          61.8316   86.2558    9.5317 C.ar    1  UNL1       -0.0215
      7 C          62.6778   85.5631    8.5049 C.ar    1  UNL1       -0.0042
      8 C          63.5246   84.3894    8.8990 C.ar    1  UNL1       -0.0003
      9 C          63.5252   83.9083   10.3198 C.ar    1  UNL1       -0.0000
     10 C          64.3720   82.7346   10.7139 C.ar    1  UNL1       -0.0000
     11 C          60.9848   87.4295    9.1376 C.3     1  UNL1        0.0347
     12 C          60.4527   86.2168    8.4334 C.3     1  UNL1        0.0054
     13 C          59.2770   86.6410    7.6040 C.3     1  UNL1        0.0004
     14 C          59.0826   88.1159    7.7957 C.3     1  UNL1        0.0017
     15 C          60.1381   88.6033    8.7435 C.3     1  UNL1        0.0208
     16 C          60.6703   89.8160    9.4477 C.3     1  UNL1        0.0689
     17 N          61.8460   89.3919   10.2770 N.3     1  UNL1       -0.2972
     18 C          62.0404   87.9169   10.0853 C.3     1  UNL1        0.0726
     19 H          61.6660   89.5923   11.2608 H       1  UNL1        0.1233
@<TRIPOS>BOND
     1     1     2   ar
     2     2     3   ar
     3     3     4   ar
     4     4     5   ar
     5     5     6   ar
     6    11     6    1
     7    11    12    1
     8    12    13    1
     9    13    14    1
    10    15    14    1
    11    15    16    1
    12    16    17    1
    13    17    18    1
    14     6     7   ar
    15     7     8   ar
    16     8     9   ar
    17     9    10   ar
    18    10     1   ar
    19     9     4   ar
    20    15    11    1
    21    18    11    1
    22    17    19    1
@<TRIPOS>MOLECULE
*****
 19 22 0 0 0
SMALL
GASTEIGER

@<TRIPOS>ATOM
      1 C          64.0382   89.4732   13.9651 C.ar    1  UNL1       -0.0000
      2 C          63.2666   89.2970   12.6909 C.ar    1  UNL1       -0.0000
      3 C          62.9336   87.9192   12.2002 C.ar    1  UNL1       -0.0000
      4 C          63.3723   86.7177   12.9836 C.ar    1  UNL1       -0.0003
      5 C          63.0393   85.3399   12.4929 C.ar    1  UNL1       -0.0042
      6 C          63.4780   84.1383   13.2763 C.ar    1  UNL1       -0.0215
      7 C          64.2497   84.3145   14.5505 C.ar    1  UNL1       -0.0042
      8 C          64.5827   85.6923   15.0413 C.ar    1  UNL1       -0.0003
      9 C          64.1439   86.8939   14.2578 C.ar    1  UNL1       -0.0000
     10 C          64.4769   88.2717   14.7485 C.ar    1  UNL1       -0.0000
     11 C          63.1450   82.7605   12.7856 C.3     1  UNL1        0.0347
     12 C          63.8502   83.4885   11.6799 C.3     1  UNL1        0.0054
     13 C          63.9530   82.5607   10.5058 C.3     1  UNL1        0.0004
     14 C          63.3114   81.2592   10.8859 C.3     1  UNL1        0.0017
     15 C          62.8121   81.3827   12.2949 C.3     1  UNL1        0.0208
     16 C          62.1069   80.6547   13.4006 C.3     1  UNL1        0.0689
     17 N          62.0040   81.5825   14.5748 N.3     1  UNL1       -0.2972
     18 C          62.6456   82.8840   14.1946 C.3     1  UNL1        0.0726
     19 H          62.4874   81.1797   15.3776 H       1  UNL1        0.1233
@<TRIPOS>BOND
     1     1     2   ar
     2     2     3   ar
     3     3     4   ar
     4     4     5   ar
     5     5     6   ar
     6    11     6    1
     7    11    12    1
     8    12    13    1
     9    13    14    1
    10    15    14    1
    11    15    16    1
    12    16    17    1
    13    17    18    1
    14     6     7   ar
    15     7     8   ar
    16     8     9   ar
    17     9    10   ar
    18    10     1   ar
    19     9     4   ar
    20    15    11    1
    21    18    11    1
    22    17    19    1
@<TRIPOS>MOLECULE
*****
 19 22 0 0 0
SMALL
GASTEIGER

@<TRIPOS>ATOM
      1 C          63.0222   86.0035   17.2544 C.ar    1  UNL1       -0.0000
      2 C          63.6931   85.4960   16.0126 C.ar    1  UNL1       -0.0000
      3 C          64.1997   86.4640   14.9848 C.ar    1  UNL1       -0.0000
      4 C          64.0353   87.9394   15.1988 C.ar    1  UNL1       -0.0003
      5 C          64.5419   88.9074   14.1710 C.ar    1  UNL1       -0.0042
      6 C          64.3776   90.3829   14.3850 C.ar    1  UNL1       -0.0215
      7 C          63.7065   90.8905   15.6269 C.ar    1  UNL1       -0.0042
      8 C          63.1999   89.9225   16.6547 C.ar    1  UNL1       -0.0003
      9 C          63.3644   88.4470   16.4406 C.ar    1  UNL1       -0.0000
     10 C          62.8578   87.4790   17.4684 C.ar    1  UNL1       -0.0000
     11 C          64.8842   91.3509   13.3572 C.3     1  UNL1        0.0347
     12 C          63.7664   90.5631   12.7408 C.3     1  UNL1        0.0054
     13 C          63.5822   91.0442   11.3321 C.3     1  UNL1        0.0004
     14 C          64.5861   92.1293   11.0778 C.3     1  UNL1        0.0017
     15 C          65.3908   92.3189   12.3294 C.3     1  UNL1        0.0208
     16 C          66.5085   93.1066   12.9458 C.3     1  UNL1        0.0689
     17 N          66.6928   92.6256   14.3546 N.3     1  UNL1       -0.2972
     18 C          65.6889   91.5405   14.6088 C.3     1  UNL1        0.0726
     19 H          66.5422   93.3960   15.0059 H       1  UNL1        0.1233
@<TRIPOS>BOND
     1     1     2   ar
     2     2     3   ar
     3     3     4   ar
     4     4     5   ar
     5     5     6   ar
     6    11     6    1
     7    11    12    1
     8    12    13    1
     9    13    14    1
    10    15    14    1
    11    15    16    1
    12    16    17    1
    13    17    18    1
    14     6     7   ar
    15     7     8   ar
    16     8     9   ar
    17     9    10   ar
    18    10     1   ar
    19     9     4   ar
    20    15    11    1
    21    18    11    1
    22    17    19    1
@<TRIPOS>MOLECULE
*****
 19 22 0 0 0
SMALL
GASTEIGER

@<TRIPOS>ATOM
      1 C          64.4294   88.0002   14.7583 C.ar    1  UNL1       -0.0000
      2 C          64.2397   86.5155   14.6604 C.ar    1  UNL1       -0.0000
      3 C          63.5665   85.9231   13.4580 C.ar    1  UNL1       -0.0000
      4 C          63.0831   86.8153   12.3534 C.ar    1  UNL1       -0.0003
      5 C          62.4099   86.2229   11.1510 C.ar    1  UNL1       -0.0042
      6 C          61.9265   87.1151   10.0464 C.ar    1  UNL1       -0.0215
      7 C          62.1163   88.5999   10.1442 C.ar    1  UNL1       -0.0042
      8 C          62.7894   89.1924   11.3466 C.ar    1  UNL1       -0.0003
      9 C          63.2728   88.3000   12.4512 C.ar    1  UNL1       -0.0000
     10 C          63.9460   88.8925   13.6537 C.ar    1  UNL1       -0.0000
     11 C          61.2533   86.5227    8.8440 C.3     1  UNL1        0.0347
     12 C          62.6462   85.9707    8.9143 C.3     1  UNL1        0.0054
     13 C          62.8340   85.0371    7.7554 C.3     1  UNL1        0.0004
     14 C          61.5571   85.0121    6.9688 C.3     1  UNL1        0.0017
     15 C          60.5802   85.9302    7.6415 C.3     1  UNL1        0.0208
     16 C          59.1872   86.4822    7.5712 C.3     1  UNL1        0.0689
     17 N          58.9994   87.4158    8.7301 N.3     1  UNL1       -0.2972
     18 C          60.2764   87.4408    9.5167 C.3     1  UNL1        0.0726
     19 H          58.2358   87.0858    9.3202 H       1  UNL1        0.1233
@<TRIPOS>BOND
     1     1     2   ar
     2     2     3   ar
     3     3     4   ar
     4     4     5   ar
     5     5     6   ar
     6    11     6    1
     7    11    12    1
     8    12    13    1
     9    13    14    1
    10    15    14    1
    11    15    16    1
    12    16    17    1
    13    17    18    1
    14     6     7   ar
    15     7     8   ar
    16     8     9   ar
    17     9    10   ar
    18    10     1   ar
    19     9     4   ar
    20    15    11    1
    21    18    11    1
    22    17    19    1
@<TRIPOS>MOLECULE
*****
 19 22 0 0 0
SMALL
GASTEIGER

@<TRIPOS>ATOM
      1 C          62.9215   86.0338   17.3352 C.ar    1  UNL1       -0.0000
      2 C          63.5948   85.4848   16.1124 C.ar    1  UNL1       -0.0000
      3 C          64.1401   86.4190   15.0732 C.ar    1  UNL1       -0.0000
      4 C          64.0121   87.9022   15.2569 C.ar    1  UNL1       -0.0003
      5 C          64.5574   88.8364   14.2177 C.ar    1  UNL1       -0.0042
      6 C          64.4294   90.3196   14.4013 C.ar    1  UNL1       -0.0215
      7 C          63.7561   90.8686   15.6242 C.ar    1  UNL1       -0.0042
      8 C          63.2108   89.9344   16.6633 C.ar    1  UNL1       -0.0003
      9 C          63.3388   88.4512   16.4797 C.ar    1  UNL1       -0.0000
     10 C          62.7936   87.5170   17.5189 C.ar    1  UNL1       -0.0000
     11 C          64.9747   91.2538   13.3621 C.3     1  UNL1        0.0347
     12 C          65.8732   91.3192   14.5614 C.3     1  UNL1        0.0054
     13 C          66.9738   92.2938   14.2634 C.3     1  UNL1        0.0004
     14 C          66.7555   92.8307   12.8800 C.3     1  UNL1        0.0017
     15 C          65.5200   92.1880   12.3229 C.3     1  UNL1        0.0208
     16 C          64.6215   92.1226   11.1236 C.3     1  UNL1        0.0689
     17 N          63.5208   91.1480   11.4215 N.3     1  UNL1       -0.2972
     18 C          63.7392   90.6110   12.8050 C.3     1  UNL1        0.0726
     19 H          63.5429   90.3839   10.7462 H       1  UNL1        0.1233
@<TRIPOS>BOND
     1     1     2   ar
     2     2     3   ar
     3     3     4   ar
     4     4     5   ar
     5     5     6   ar
     6    11     6    1
     7    11    12    1
     8    12    13    1
     9    13    14    1
    10    15    14    1
    11    15    16    1
    12    16    17    1
    13    17    18    1
    14     6     7   ar
    15     7     8   ar
    16     8     9   ar
    17     9    10   ar
    18    10     1   ar
    19     9     4   ar
    20    15    11    1
    21    18    11    1
    22    17    19    1
@<TRIPOS>MOLECULE
*****
 19 22 0 0 0
SMALL
GASTEIGER

@<TRIPOS>ATOM
      1 C          63.9932   89.5666   13.9581 C.ar    1  UNL1       -0.0000
      2 C          63.2204   89.4051   12.6827 C.ar    1  UNL1       -0.0000
      3 C          62.9179   88.0329   12.1577 C.ar    1  UNL1       -0.0000
      4 C          63.3882   86.8223   12.9081 C.ar    1  UNL1       -0.0003
      5 C          63.0857   85.4501   12.3830 C.ar    1  UNL1       -0.0042
      6 C          63.5560   84.2394   13.1334 C.ar    1  UNL1       -0.0215
      7 C          64.3288   84.4009   14.4089 C.ar    1  UNL1       -0.0042
      8 C          64.6313   85.7731   14.9339 C.ar    1  UNL1       -0.0003
      9 C          64.1610   86.9838   14.1834 C.ar    1  UNL1       -0.0000
     10 C          64.4635   88.3559   14.7085 C.ar    1  UNL1       -0.0000
     11 C          63.2535   82.8673   12.6084 C.3     1  UNL1        0.0347
     12 C          62.5950   83.0063   13.9488 C.3     1  UNL1        0.0054
     13 C          61.8854   81.7200   14.2523 C.3     1  UNL1        0.0004
     14 C          62.1055   80.7861   13.0993 C.3     1  UNL1        0.0017
     15 C          62.9510   81.4951   12.0833 C.3     1  UNL1        0.0208
     16 C          63.6095   81.3562   10.7428 C.3     1  UNL1        0.0689
     17 N          64.3191   82.6424   10.4393 N.3     1  UNL1       -0.2972
     18 C          64.0990   83.5763   11.5923 C.3     1  UNL1        0.0726
     19 H          63.9420   83.0525    9.5849 H       1  UNL1        0.1233
@<TRIPOS>BOND
     1     1     2   ar
     2     2     3   ar
     3     3     4   ar
     4     4     5   ar
     5     5     6   ar
     6    11     6    1
     7    11    12    1
     8    12    13    1
     9    13    14    1
    10    15    14    1
    11    15    16    1
    12    16    17    1
    13    17    18    1
    14     6     7   ar
    15     7     8   ar
    16     8     9   ar
    17     9    10   ar
    18    10     1   ar
    19     9     4   ar
    20    15    11    1
    21    18    11    1
    22    17    19    1
@<TRIPOS>MOLECULE
*****
 19 22 0 0 0
SMALL
GASTEIGER

@<TRIPOS>ATOM
      1 C          59.6798   88.9633    7.9183 C.ar    1  UNL1       -0.0000
      2 C          59.3657   87.5819    7.4251 C.ar    1  UNL1       -0.0000
      3 C          59.9763   86.3884    8.0979 C.ar    1  UNL1       -0.0000
      4 C          60.9010   86.5762    9.2640 C.ar    1  UNL1       -0.0003
      5 C          61.5116   85.3827    9.9368 C.ar    1  UNL1       -0.0042
      6 C          62.4363   85.5705   11.1028 C.ar    1  UNL1       -0.0215
      7 C          62.7504   86.9519   11.5960 C.ar    1  UNL1       -0.0042
      8 C          62.1398   88.1454   10.9232 C.ar    1  UNL1       -0.0003
      9 C          61.2151   87.9576    9.7571 C.ar    1  UNL1       -0.0000
     10 C          60.6045   89.1511    9.0843 C.ar    1  UNL1       -0.0000
     11 C          63.0468   84.3770   11.7757 C.3     1  UNL1        0.0347
     12 C          63.3332   84.2779   10.3067 C.3     1  UNL1        0.0054
     13 C          64.1208   83.0232   10.0716 C.3     1  UNL1        0.0004
     14 C          64.3212   82.3468   11.3954 C.3     1  UNL1        0.0017
     15 C          63.6574   83.1835   12.4485 C.3     1  UNL1        0.0208
     16 C          63.3710   83.2827   13.9176 C.3     1  UNL1        0.0689
     17 N          62.5834   84.5374   14.1527 N.3     1  UNL1       -0.2972
     18 C          62.3831   85.2138   12.8289 C.3     1  UNL1        0.0726
     19 H          63.0956   85.1547   14.7828 H       1  UNL1        0.1233
@<TRIPOS>BOND
     1     1     2   ar
     2     2     3   ar
     3     3     4   ar
     4     4     5   ar
     5     5     6   ar
     6    11     6    1
     7    11    12    1
     8    12    13    1
     9    13    14    1
    10    15    14    1
    11    15    16    1
    12    16    17    1
    13    17    18    1
    14     6     7   ar
    15     7     8   ar
    16     8     9   ar
    17     9    10   ar
    18    10     1   ar
    19     9     4   ar
    20    15    11    1
    21    18    11    1
    22    17    19    1
@<TRIPOS>MOLECULE
*****
 19 22 0 0 0
SMALL
GASTEIGER

@<TRIPOS>ATOM
      1 C          61.5975   88.0492    9.9032 C.ar    1  UNL1       -0.0000
      2 C          61.6083   89.5125    9.5737 C.ar    1  UNL1       -0.0000
      3 C          62.3140   90.4796   10.4775 C.ar    1  UNL1       -0.0000
      4 C          63.0089   89.9833   11.7107 C.ar    1  UNL1       -0.0003
      5 C          63.7145   90.9504   12.6145 C.ar    1  UNL1       -0.0042
      6 C          64.4094   90.4541   13.8477 C.ar    1  UNL1       -0.0215
      7 C          64.3986   88.9908   14.1772 C.ar    1  UNL1       -0.0042
      8 C          63.6930   88.0237   13.2734 C.ar    1  UNL1       -0.0003
      9 C          62.9981   88.5200   12.0401 C.ar    1  UNL1       -0.0000
     10 C          62.2924   87.5530   11.1364 C.ar    1  UNL1       -0.0000
     11 C          65.1151   91.4212   14.7515 C.3     1  UNL1        0.0347
     12 C          65.9486   91.2482   13.5165 C.3     1  UNL1        0.0054
     13 C          67.1694   92.1084   13.6569 C.3     1  UNL1        0.0004
     14 C          67.0904   92.8129   14.9788 C.3     1  UNL1        0.0017
     15 C          65.8208   92.3883   15.6553 C.3     1  UNL1        0.0208
     16 C          64.9873   92.5612   16.8903 C.3     1  UNL1        0.0689
     17 N          63.7664   91.7011   16.7498 N.3     1  UNL1       -0.2972
     18 C          63.8455   90.9965   15.4280 C.3     1  UNL1        0.0726
     19 H          62.9283   92.2815   16.7832 H       1  UNL1        0.1233
@<TRIPOS>BOND
     1     1     2   ar
     2     2     3   ar
     3     3     4   ar
     4     4     5   ar
     5     5     6   ar
     6    11     6    1
     7    11    12    1
     8    12    13    1
     9    13    14    1
    10    15    14    1
    11    15    16    1
    12    16    17    1
    13    17    18    1
    14     6     7   ar
    15     7     8   ar
    16     8     9   ar
    17     9    10   ar
    18    10     1   ar
    19     9     4   ar
    20    15    11    1
    21    18    11    1
    22    17    19    1
