@<TRIPOS>MOLECULE
*****
 37 40 0 0 0
SMALL
GASTEIGER

@<TRIPOS>ATOM
      1 C          60.2566   88.7534    7.7864 C.ar    1  UNL1        0.0479
      2 C          60.8028   89.3273    9.0600 C.ar    1  UNL1        0.0145
      3 C          61.1387   88.4214   10.2075 C.ar    1  UNL1        0.0013
      4 C          60.9285   86.9417   10.0812 C.ar    1  UNL1        0.0001
      5 C          60.3823   86.3677    8.8076 C.ar    1  UNL1        0.0013
      6 C          60.0463   87.2736    7.6602 C.ar    1  UNL1        0.0145
      7 N          60.0095   93.0561    2.4314 N.am    1  UNL1       -0.2791
      8 C          58.9128   92.3768    3.1967 C.2     1  UNL1        0.3045
      9 O          57.4801   92.6033    2.8146 O.2     1  UNL1       -0.2526
     10 N          59.2487   91.4709    4.3441 N.am    1  UNL1       -0.2607
     11 C          60.6814   91.2444    4.7263 C.3     1  UNL1        0.1164
     12 C          61.0173   90.3385    5.8737 C.3     1  UNL1        0.1124
     13 N          59.9206   89.6592    6.6390 N.pl3   1  UNL1       -0.3041
     14 C          58.4880   89.8857    6.2568 C.3     1  UNL1        0.1124
     15 C          58.1520   90.7916    5.1094 C.3     1  UNL1        0.1164
     16 H          60.9498   92.9074    2.6823 H       1  UNL1        0.1515
     17 C          59.6735   93.9619    1.2840 C.3     1  UNL1        0.2017
     18 C          59.1948   93.3821   -0.0140 C.2     1  UNL1        0.3373
     19 O          60.1275   92.5684   -0.8612 O.2     1  UNL1       -0.2482
     20 O          57.7833   93.6161   -0.4646 O.3     1  UNL1       -0.4473
     21 C          55.8812   92.9206   -2.0919 C.3     1  UNL1        0.0513
     22 C          57.0559   92.5538   -1.2342 C.3     1  UNL1        0.2086
     23 C          61.2644   86.0358   11.2287 C.2     1  UNL1        0.0000
     24 C          62.2690   84.9368   11.0473 C.2     1  UNL1        0.0000
     25 C          62.6050   84.0309   12.1948 C.ar    1  UNL1        0.0006
     26 C          62.4593   82.5455   12.0452 C.ar    1  UNL1        0.0114
     27 C          62.7952   81.6396   13.1926 C.ar    1  UNL1        0.0574
     28 CL         62.6495   80.1543   13.0431 Cl      1  UNL1       -0.0823
     29 C          63.2769   82.2192   14.4896 C.ar    1  UNL1        0.0090
     30 C          63.4226   83.7046   14.6391 C.ar    1  UNL1        0.0013
     31 C          63.0867   84.6105   13.4917 C.ar    1  UNL1       -0.0023
     32 C          63.9043   84.2841   15.9361 C.3     1  UNL1        0.1344
     33 N          63.5967   85.7114   16.2800 N.ar    1  UNL1       -0.3036
     34 C          62.7914   86.1813   17.4551 C.ar    1  UNL1        0.0983
     35 C          62.7374   87.6797   17.4105 C.ar    1  UNL1        0.1193
     36 N          63.5093   88.1358   16.2079 N.ar    1  UNL1       -0.2223
     37 C          64.0404   86.9193   15.5093 C.ar    1  UNL1        0.1789
@<TRIPOS>BOND
     1    21    22    1
     2    22    20    1
     3    20    18    1
     4    18    19    2
     5    18    17    1
     6    17     7    1
     7     7     8   am
     8     8     9    2
     9     8    10   am
    10    10    11    1
    11    11    12    1
    12    12    13    1
    13    13     1    1
    14     1     2   ar
    15     2     3   ar
    16     3     4   ar
    17     4    23    1
    18    23    24    2
    19    24    25    1
    20    25    26   ar
    21    26    27   ar
    22    27    28    1
    23    27    29   ar
    24    29    30   ar
    25    30    32    1
    26    32    33    1
    27    33    34   ar
    28    34    35   ar
    29    35    36   ar
    30    36    37   ar
    31    30    31   ar
    32     4     5   ar
    33     5     6   ar
    34    13    14    1
    35    14    15    1
    36    15    10    1
    37     6     1   ar
    38    31    25   ar
    39    37    33   ar
    40     7    16    1
@<TRIPOS>MOLECULE
*****
 37 40 0 0 0
SMALL
GASTEIGER

@<TRIPOS>ATOM
      1 C          60.2705   88.7703    7.7813 C.ar    1  UNL1        0.0479
      2 C          60.0652   87.2903    7.6495 C.ar    1  UNL1        0.0145
      3 C          60.3934   86.3824    8.7974 C.ar    1  UNL1        0.0013
      4 C          60.9270   86.9544   10.0773 C.ar    1  UNL1        0.0001
      5 C          61.1323   88.4344   10.2092 C.ar    1  UNL1        0.0013
      6 C          60.8041   89.3423    9.0612 C.ar    1  UNL1        0.0145
      7 N          60.0577   93.1060    2.4515 N.am    1  UNL1       -0.2791
      8 C          58.9576   92.4022    3.1894 C.2     1  UNL1        0.3045
      9 O          57.5293   92.6065    2.7794 O.2     1  UNL1       -0.2526
     10 N          59.2859   91.4943    4.3374 N.am    1  UNL1       -0.2607
     11 C          60.7142   91.2900    4.7475 C.3     1  UNL1        0.1164
     12 C          61.0424   90.3820    5.8955 C.3     1  UNL1        0.1124
     13 N          59.9423   89.6783    6.6334 N.pl3   1  UNL1       -0.3041
     14 C          58.5140   89.8826    6.2233 C.3     1  UNL1        0.1124
     15 C          58.1858   90.7905    5.0753 C.3     1  UNL1        0.1164
     16 H          60.9952   92.9719    2.7207 H       1  UNL1        0.1515
     17 C          59.7295   94.0139    1.3036 C.3     1  UNL1        0.2017
     18 C          60.5562   93.9703    0.0527 C.2     1  UNL1        0.3373
     19 O          60.1773   94.8161   -1.1267 O.2     1  UNL1       -0.2482
     20 O          61.7619   93.0807   -0.0188 O.3     1  UNL1       -0.4473
     21 C          63.6250   92.9595    1.7878 C.3     1  UNL1        0.0513
     22 C          63.0770   93.5549    0.5248 C.3     1  UNL1        0.2086
     23 C          61.2552   86.0464   11.2253 C.2     1  UNL1        0.0000
     24 C          62.2320   84.9236   11.0379 C.2     1  UNL1        0.0000
     25 C          62.5602   84.0156   12.1859 C.ar    1  UNL1        0.0006
     26 C          62.4161   82.5304   12.0324 C.ar    1  UNL1        0.0114
     27 C          62.7443   81.6225   13.1804 C.ar    1  UNL1        0.0574
     28 CL         62.6002   80.1373   13.0269 Cl      1  UNL1       -0.0823
     29 C          63.2167   82.1997   14.4818 C.ar    1  UNL1        0.0090
     30 C          63.3608   83.6848   14.6353 C.ar    1  UNL1        0.0013
     31 C          63.0326   84.5928   13.4873 C.ar    1  UNL1       -0.0023
     32 C          63.8332   84.2619   15.9367 C.3     1  UNL1        0.1344
     33 N          63.5736   85.7045   16.2556 N.ar    1  UNL1       -0.3036
     34 C          62.7890   86.2216   17.4249 C.ar    1  UNL1        0.0983
     35 C          62.7836   87.7199   17.3532 C.ar    1  UNL1        0.1193
     36 N          63.5648   88.1288   16.1397 N.ar    1  UNL1       -0.2223
     37 C          64.0530   86.8832   15.4614 C.ar    1  UNL1        0.1789
@<TRIPOS>BOND
     1    21    22    1
     2    22    20    1
     3    20    18    1
     4    18    19    2
     5    18    17    1
     6    17     7    1
     7     7     8   am
     8     8     9    2
     9     8    10   am
    10    10    11    1
    11    11    12    1
    12    12    13    1
    13    13     1    1
    14     1     2   ar
    15     2     3   ar
    16     3     4   ar
    17     4    23    1
    18    23    24    2
    19    24    25    1
    20    25    26   ar
    21    26    27   ar
    22    27    28    1
    23    27    29   ar
    24    29    30   ar
    25    30    32    1
    26    32    33    1
    27    33    34   ar
    28    34    35   ar
    29    35    36   ar
    30    36    37   ar
    31    30    31   ar
    32     4     5   ar
    33     5     6   ar
    34    13    14    1
    35    14    15    1
    36    15    10    1
    37     6     1   ar
    38    31    25   ar
    39    37    33   ar
    40     7    16    1
@<TRIPOS>MOLECULE
*****
 37 40 0 0 0
SMALL
GASTEIGER

@<TRIPOS>ATOM
      1 C          60.0216   89.8786    6.6120 C.ar    1  UNL1        0.0479
      2 C          58.5553   90.0965    6.3834 C.ar    1  UNL1        0.0145
      3 C          58.0934   90.9574    5.2452 C.ar    1  UNL1        0.0013
      4 C          59.0980   91.6004    4.3356 C.ar    1  UNL1        0.0001
      5 C          60.5643   91.3825    4.5642 C.ar    1  UNL1        0.0013
      6 C          61.0261   90.5216    5.7024 C.ar    1  UNL1        0.0145
      7 N          62.7468   87.0134   12.2347 N.am    1  UNL1       -0.2791
      8 C          61.8689   86.4348   11.1648 C.2     1  UNL1        0.3045
      9 O          61.4529   84.9953   11.2332 O.2     1  UNL1       -0.2526
     10 N          61.4071   87.2958   10.0266 N.am    1  UNL1       -0.2607
     11 C          61.8231   88.7353    9.9582 C.3     1  UNL1        0.1164
     12 C          61.3613   89.5962    8.8200 C.3     1  UNL1        0.1124
     13 N          60.4835   89.0176    7.7502 N.pl3   1  UNL1       -0.3041
     14 C          60.0674   87.5781    7.8186 C.3     1  UNL1        0.1124
     15 C          60.5293   86.7172    8.9568 C.3     1  UNL1        0.1164
     16 H          63.0199   87.9582   12.1898 H       1  UNL1        0.1515
     17 C          63.2086   86.1525   13.3729 C.3     1  UNL1        0.2017
     18 C          64.1543   86.7068   14.3969 C.2     1  UNL1        0.3373
     19 O          65.3246   85.8893   14.8573 O.2     1  UNL1       -0.2482
     20 O          63.9296   88.0787   14.9604 O.3     1  UNL1       -0.4473
     21 C          65.0662   90.3570   14.4435 C.3     1  UNL1        0.0513
     22 C          64.0818   89.2847   14.0815 C.3     1  UNL1        0.2086
     23 C          58.6361   92.4614    3.1974 C.2     1  UNL1        0.0000
     24 C          59.5408   92.7047    2.0260 C.2     1  UNL1        0.0000
     25 C          59.0790   93.5656    0.8878 C.ar    1  UNL1        0.0006
     26 C          59.8702   94.7781    0.4954 C.ar    1  UNL1        0.0114
     27 C          59.4084   95.6391   -0.6428 C.ar    1  UNL1        0.0574
     28 CL         60.1996   96.8515   -1.0351 Cl      1  UNL1       -0.0823
     29 C          58.1553   95.2875   -1.3886 C.ar    1  UNL1        0.0090
     30 C          57.3641   94.0751   -0.9963 C.ar    1  UNL1        0.0013
     31 C          57.8260   93.2141    0.1419 C.ar    1  UNL1       -0.0023
     32 C          56.1111   93.7236   -1.7421 C.3     1  UNL1        0.1344
     33 N          56.1875   92.8857   -2.9840 N.ar    1  UNL1       -0.3036
     34 C          56.2889   93.3997   -4.3896 C.ar    1  UNL1        0.0983
     35 C          56.3400   92.2184   -5.3125 C.ar    1  UNL1        0.1193
     36 N          56.2702   90.9743   -4.4774 N.ar    1  UNL1       -0.2223
     37 C          56.1760   91.3867   -3.0383 C.ar    1  UNL1        0.1789
@<TRIPOS>BOND
     1    21    22    1
     2    22    20    1
     3    20    18    1
     4    18    19    2
     5    18    17    1
     6    17     7    1
     7     7     8   am
     8     8     9    2
     9     8    10   am
    10    10    11    1
    11    11    12    1
    12    12    13    1
    13    13     1    1
    14     1     2   ar
    15     2     3   ar
    16     3     4   ar
    17     4    23    1
    18    23    24    2
    19    24    25    1
    20    25    26   ar
    21    26    27   ar
    22    27    28    1
    23    27    29   ar
    24    29    30   ar
    25    30    32    1
    26    32    33    1
    27    33    34   ar
    28    34    35   ar
    29    35    36   ar
    30    36    37   ar
    31    30    31   ar
    32     4     5   ar
    33     5     6   ar
    34    13    14    1
    35    14    15    1
    36    15    10    1
    37     6     1   ar
    38    31    25   ar
    39    37    33   ar
    40     7    16    1
@<TRIPOS>MOLECULE
*****
 37 40 0 0 0
SMALL
GASTEIGER

@<TRIPOS>ATOM
      1 C          60.0108   90.0343    6.5557 C.ar    1  UNL1        0.0479
      2 C          58.5397   90.2248    6.3334 C.ar    1  UNL1        0.0145
      3 C          58.0556   91.0196    5.1570 C.ar    1  UNL1        0.0013
      4 C          59.0426   91.6241    4.2029 C.ar    1  UNL1        0.0001
      5 C          60.5138   91.4336    4.4252 C.ar    1  UNL1        0.0013
      6 C          60.9979   90.6387    5.6015 C.ar    1  UNL1        0.0145
      7 N          61.7259   85.3720   11.3066 N.am    1  UNL1       -0.2791
      8 C          61.9472   86.8548   11.2611 C.2     1  UNL1        0.3045
      9 O          62.6527   87.5428   12.3920 O.2     1  UNL1       -0.2526
     10 N          61.4631   87.6497   10.0847 N.am    1  UNL1       -0.2607
     11 C          60.7577   86.9617    8.9538 C.3     1  UNL1        0.1164
     12 C          60.2736   87.7566    7.7775 C.3     1  UNL1        0.1124
     13 N          60.4949   89.2394    7.7320 N.pl3   1  UNL1       -0.3041
     14 C          61.2004   89.9274    8.8629 C.3     1  UNL1        0.1124
     15 C          61.6845   89.1326   10.0393 C.3     1  UNL1        0.1164
     16 H          61.2629   84.9204   10.5643 H       1  UNL1        0.1515
     17 C          62.2100   84.5771   12.4829 C.3     1  UNL1        0.2017
     18 C          63.0673   83.3652   12.2676 C.2     1  UNL1        0.3373
     19 O          64.5428   83.4343   12.5283 O.2     1  UNL1       -0.2482
     20 O          62.4489   82.0841   11.7915 O.3     1  UNL1       -0.4473
     21 C          62.2105   80.3561   13.7168 C.3     1  UNL1        0.0513
     22 C          62.8408   80.7817   12.4239 C.3     1  UNL1        0.2086
     23 C          58.5585   92.4189    3.0266 C.2     1  UNL1        0.0000
     24 C          59.5083   92.7793    1.9229 C.2     1  UNL1        0.0000
     25 C          59.0242   93.5742    0.7466 C.ar    1  UNL1        0.0006
     26 C          57.8055   93.1312   -0.0076 C.ar    1  UNL1        0.0114
     27 C          57.3214   93.9261   -1.1840 C.ar    1  UNL1        0.0574
     28 CL         56.1028   93.4831   -1.9381 Cl      1  UNL1       -0.0823
     29 C          58.0559   95.1639   -1.6062 C.ar    1  UNL1        0.0090
     30 C          59.2745   95.6069   -0.8520 C.ar    1  UNL1        0.0013
     31 C          59.7586   94.8120    0.3243 C.ar    1  UNL1       -0.0023
     32 C          60.0090   96.8447   -1.2742 C.3     1  UNL1        0.1344
     33 N          61.4506   96.7597   -1.6800 N.ar    1  UNL1       -0.3036
     34 C          62.6167   96.5673   -0.7562 C.ar    1  UNL1        0.0983
     35 C          63.8660   96.5409   -1.5861 C.ar    1  UNL1        0.1193
     36 N          63.4720   96.7171   -3.0227 N.ar    1  UNL1       -0.2223
     37 C          61.9792   96.8524   -3.0807 C.ar    1  UNL1        0.1789
@<TRIPOS>BOND
     1    21    22    1
     2    22    20    1
     3    20    18    1
     4    18    19    2
     5    18    17    1
     6    17     7    1
     7     7     8   am
     8     8     9    2
     9     8    10   am
    10    10    11    1
    11    11    12    1
    12    12    13    1
    13    13     1    1
    14     1     2   ar
    15     2     3   ar
    16     3     4   ar
    17     4    23    1
    18    23    24    2
    19    24    25    1
    20    25    26   ar
    21    26    27   ar
    22    27    28    1
    23    27    29   ar
    24    29    30   ar
    25    30    32    1
    26    32    33    1
    27    33    34   ar
    28    34    35   ar
    29    35    36   ar
    30    36    37   ar
    31    30    31   ar
    32     4     5   ar
    33     5     6   ar
    34    13    14    1
    35    14    15    1
    36    15    10    1
    37     6     1   ar
    38    31    25   ar
    39    37    33   ar
    40     7    16    1
@<TRIPOS>MOLECULE
*****
 37 40 0 0 0
SMALL
GASTEIGER

@<TRIPOS>ATOM
      1 C          60.2169   88.9759    7.7158 C.ar    1  UNL1        0.0479
      2 C          60.8566   89.5624    8.9391 C.ar    1  UNL1        0.0145
      3 C          61.1551   88.6889   10.1215 C.ar    1  UNL1        0.0013
      4 C          60.8138   87.2289   10.0804 C.ar    1  UNL1        0.0001
      5 C          60.1741   86.6423    8.8571 C.ar    1  UNL1        0.0013
      6 C          59.8756   87.5158    7.6748 C.ar    1  UNL1        0.0145
      7 N          60.1414   93.1544    2.2582 N.am    1  UNL1       -0.2791
      8 C          59.0229   92.4699    2.9865 C.2     1  UNL1        0.3045
      9 O          57.6059   92.6589    2.5323 O.2     1  UNL1       -0.2526
     10 N          59.3214   91.5964    4.1688 N.am    1  UNL1       -0.2607
     11 C          60.7384   91.4074    4.6229 C.3     1  UNL1        0.1164
     12 C          61.0369   90.5339    5.8052 C.3     1  UNL1        0.1124
     13 N          59.9184   89.8494    6.5335 N.pl3   1  UNL1       -0.3041
     14 C          58.5013   90.0384    6.0793 C.3     1  UNL1        0.1124
     15 C          58.2029   90.9119    4.8970 C.3     1  UNL1        0.1164
     16 H          61.0715   93.0303    2.5563 H       1  UNL1        0.1515
     17 C          59.8429   94.0278    1.0759 C.3     1  UNL1        0.2017
     18 C          60.3371   93.6406   -0.2864 C.2     1  UNL1        0.3373
     19 O          59.7626   92.4409   -0.9796 O.2     1  UNL1       -0.2482
     20 O          61.4058   94.4531   -0.9556 O.3     1  UNL1       -0.4473
     21 C          63.4106   93.8210    0.5712 C.3     1  UNL1        0.0513
     22 C          62.6332   94.8525   -0.1915 C.3     1  UNL1        0.2086
     23 C          61.1123   86.3554   11.2628 C.2     1  UNL1        0.0000
     24 C          62.5196   85.9107   11.5305 C.2     1  UNL1        0.0000
     25 C          62.8181   85.0372   12.7128 C.ar    1  UNL1        0.0006
     26 C          63.3163   85.6475   13.9894 C.ar    1  UNL1        0.0114
     27 C          63.6147   84.7740   15.1717 C.ar    1  UNL1        0.0574
     28 CL         64.1129   85.3841   16.4483 Cl      1  UNL1       -0.0823
     29 C          63.4151   83.2902   15.0775 C.ar    1  UNL1        0.0090
     30 C          62.9170   82.6801   13.8010 C.ar    1  UNL1        0.0013
     31 C          62.6185   83.5536   12.6186 C.ar    1  UNL1       -0.0023
     32 C          62.7173   81.1965   13.7068 C.3     1  UNL1        0.1344
     33 N          62.7920   80.5128   12.3737 N.ar    1  UNL1       -0.3036
     34 C          62.5788   79.0498   12.1200 C.ar    1  UNL1        0.0983
     35 C          62.7481   78.8049   10.6498 C.ar    1  UNL1        0.1193
     36 N          63.0659   80.1164    9.9949 N.ar    1  UNL1       -0.2223
     37 C          63.0931   81.1719   11.0604 C.ar    1  UNL1        0.1789
@<TRIPOS>BOND
     1    21    22    1
     2    22    20    1
     3    20    18    1
     4    18    19    2
     5    18    17    1
     6    17     7    1
     7     7     8   am
     8     8     9    2
     9     8    10   am
    10    10    11    1
    11    11    12    1
    12    12    13    1
    13    13     1    1
    14     1     2   ar
    15     2     3   ar
    16     3     4   ar
    17     4    23    1
    18    23    24    2
    19    24    25    1
    20    25    26   ar
    21    26    27   ar
    22    27    28    1
    23    27    29   ar
    24    29    30   ar
    25    30    32    1
    26    32    33    1
    27    33    34   ar
    28    34    35   ar
    29    35    36   ar
    30    36    37   ar
    31    30    31   ar
    32     4     5   ar
    33     5     6   ar
    34    13    14    1
    35    14    15    1
    36    15    10    1
    37     6     1   ar
    38    31    25   ar
    39    37    33   ar
    40     7    16    1
@<TRIPOS>MOLECULE
*****
 37 40 0 0 0
SMALL
GASTEIGER

@<TRIPOS>ATOM
      1 C          60.3585   89.6794    7.2925 C.ar    1  UNL1        0.0479
      2 C          58.8914   89.7481    6.9879 C.ar    1  UNL1        0.0145
      3 C          58.4080   90.5224    5.7976 C.ar    1  UNL1        0.0013
      4 C          59.3916   91.2280    4.9119 C.ar    1  UNL1        0.0001
      5 C          60.8587   91.1593    5.2165 C.ar    1  UNL1        0.0013
      6 C          61.3422   90.3850    6.4068 C.ar    1  UNL1        0.0145
      7 N          61.8712   85.1549   12.2413 N.am    1  UNL1       -0.2791
      8 C          62.2923   86.5822   12.0536 C.2     1  UNL1        0.3045
      9 O          63.1969   87.2353   13.0561 O.2     1  UNL1       -0.2526
     10 N          61.8089   87.3565   10.8633 N.am    1  UNL1       -0.2607
     11 C          60.9043   86.7034    9.8607 C.3     1  UNL1        0.1164
     12 C          60.4209   87.4777    8.6704 C.3     1  UNL1        0.1124
     13 N          60.8420   88.9051    8.4827 N.pl3   1  UNL1       -0.3041
     14 C          61.7466   89.5581    9.4853 C.3     1  UNL1        0.1124
     15 C          62.2300   88.7838   10.6756 C.3     1  UNL1        0.1164
     16 H          61.2775   84.7262   11.5832 H       1  UNL1        0.1515
     17 C          62.3547   84.3806   13.4315 C.3     1  UNL1        0.2017
     18 C          63.7020   84.6755   14.0213 C.2     1  UNL1        0.3373
     19 O          64.9330   84.5663   13.1712 O.2     1  UNL1       -0.2482
     20 O          63.8183   85.0796   15.4612 O.3     1  UNL1       -0.4473
     21 C          62.6902   86.3946   17.3972 C.3     1  UNL1        0.0513
     22 C          62.5893   85.4473   16.2385 C.3     1  UNL1        0.2086
     23 C          58.9082   92.0023    3.7217 C.2     1  UNL1        0.0000
     24 C          59.8956   92.5867    2.7556 C.2     1  UNL1        0.0000
     25 C          59.4122   93.3610    1.5653 C.ar    1  UNL1        0.0006
     26 C          59.9878   94.7135    1.2662 C.ar    1  UNL1        0.0114
     27 C          59.5043   95.4878    0.0760 C.ar    1  UNL1        0.0574
     28 CL         60.0798   96.8403   -0.2231 Cl      1  UNL1       -0.0823
     29 C          58.4453   94.9096   -0.8152 C.ar    1  UNL1        0.0090
     30 C          57.8698   93.5571   -0.5161 C.ar    1  UNL1        0.0013
     31 C          58.3532   92.7828    0.6742 C.ar    1  UNL1       -0.0023
     32 C          56.8108   92.9789   -1.4073 C.3     1  UNL1        0.1344
     33 N          56.7847   93.3288   -2.8657 N.ar    1  UNL1       -0.3036
     34 C          55.7062   94.0989   -3.5684 C.ar    1  UNL1        0.0983
     35 C          56.0875   94.2161   -5.0145 C.ar    1  UNL1        0.1193
     36 N          57.4015   93.5184   -5.2054 N.ar    1  UNL1       -0.2223
     37 C          57.8324   92.9700   -3.8774 C.ar    1  UNL1        0.1789
@<TRIPOS>BOND
     1    21    22    1
     2    22    20    1
     3    20    18    1
     4    18    19    2
     5    18    17    1
     6    17     7    1
     7     7     8   am
     8     8     9    2
     9     8    10   am
    10    10    11    1
    11    11    12    1
    12    12    13    1
    13    13     1    1
    14     1     2   ar
    15     2     3   ar
    16     3     4   ar
    17     4    23    1
    18    23    24    2
    19    24    25    1
    20    25    26   ar
    21    26    27   ar
    22    27    28    1
    23    27    29   ar
    24    29    30   ar
    25    30    32    1
    26    32    33    1
    27    33    34   ar
    28    34    35   ar
    29    35    36   ar
    30    36    37   ar
    31    30    31   ar
    32     4     5   ar
    33     5     6   ar
    34    13    14    1
    35    14    15    1
    36    15    10    1
    37     6     1   ar
    38    31    25   ar
    39    37    33   ar
    40     7    16    1
