@<TRIPOS>MOLECULE
*****
 27 30 0 0 0
SMALL
GASTEIGER

@<TRIPOS>ATOM
      1 C          61.0502   85.9917    9.1358 C.3     1  UNL1        0.0327
      2 C          61.3761   87.2376    9.9049 C.2     1  UNL1       -0.0013
      3 C          60.9035   88.6235    9.5796 C.2     1  UNL1        0.0943
      4 N          61.4671   89.5588   10.6081 N.2     1  UNL1       -0.2449
      5 C          62.2880   88.7508   11.5690 C.2     1  UNL1        0.0999
      6 C          63.0794   89.1361   12.7836 C.3     1  UNL1        0.2160
      7 N          63.8146   88.0867   13.5635 N.2     1  UNL1       -0.2447
      8 C          63.7584   86.6522   13.1290 C.2     1  UNL1        0.1000
      9 C          62.9669   86.2669   11.9144 C.2     1  UNL1        0.0733
     10 C          62.2317   87.3163   11.1344 C.2     1  UNL1        0.0205
     11 C          62.9107   84.8323   11.4799 C.2     1  UNL1        0.2507
     12 O          63.1067   84.4780   10.0356 O.2     1  UNL1       -0.2698
     13 N          62.6584   83.7522   12.4896 N.am    1  UNL1       -0.2709
     14 C          62.4624   84.1065   13.9339 C.3     1  UNL1        0.1258
     15 C          62.2102   83.0263   14.9436 C.3     1  UNL1        0.1637
     16 O          62.1540   81.5917   14.5090 O.3     1  UNL1       -0.3501
     17 C          62.3500   81.2374   13.0647 C.3     1  UNL1        0.1637
     18 C          62.6023   82.3176   12.0550 C.3     1  UNL1        0.1258
     19 N          63.1357   90.5706   13.2182 N.pl3   1  UNL1       -0.3108
     20 H          62.3150   91.0288   13.5110 H       1  UNL1        0.1489
     21 C          64.4424   91.3071   13.2067 C.ar    1  UNL1        0.0470
     22 C          64.8550   92.0835   11.9913 C.ar    1  UNL1        0.0144
     23 C          66.1617   92.8199   11.9798 C.ar    1  UNL1        0.0021
     24 C          67.0558   92.7800   13.1836 C.ar    1  UNL1        0.0115
     25 C          66.6432   92.0036   14.3988 C.ar    1  UNL1        0.0589
     26 CL         67.5373   91.9637   15.6026 Cl      1  UNL1       -0.0822
     27 C          65.3365   91.2671   14.4104 C.ar    1  UNL1        0.0257
@<TRIPOS>BOND
     1     1     2    1
     2     2     3    2
     3     3     4    1
     4     4     5    2
     5     5     6    1
     6     6    19    1
     7    19    21    1
     8    21    22   ar
     9    22    23   ar
    10    23    24   ar
    11    24    25   ar
    12    25    26    1
    13    25    27   ar
    14     6     7    1
    15     7     8    2
    16     8     9    1
    17     9    11    1
    18    11    12    2
    19    11    13   am
    20    13    14    1
    21    14    15    1
    22    15    16    1
    23    16    17    1
    24    17    18    1
    25     9    10    2
    26    10     2    1
    27    10     5    1
    28    27    21   ar
    29    18    13    1
    30    19    20    1
@<TRIPOS>MOLECULE
*****
 27 30 0 0 0
SMALL
GASTEIGER

@<TRIPOS>ATOM
      1 C          63.8268   91.7397    9.6721 C.3     1  UNL1        0.0327
      2 C          63.5431   91.3022   11.0786 C.2     1  UNL1       -0.0013
      3 C          62.2579   90.7092   11.5752 C.2     1  UNL1        0.0943
      4 N          62.4153   90.4214   13.0389 N.2     1  UNL1       -0.2449
      5 C          63.7977   90.8365   13.4469 C.2     1  UNL1        0.0999
      6 C          64.5120   90.7891   14.7651 C.3     1  UNL1        0.2160
      7 N          65.9232   91.2861   14.8717 N.2     1  UNL1       -0.2447
      8 C          66.6202   91.8304   13.6602 C.2     1  UNL1        0.1000
      9 C          65.9060   91.8779   12.3419 C.2     1  UNL1        0.0733
     10 C          64.4947   91.3809   12.2353 C.2     1  UNL1        0.0205
     11 C          66.6031   92.4223   11.1304 C.2     1  UNL1        0.2507
     12 O          67.2851   91.4887   10.1748 O.2     1  UNL1       -0.2698
     13 N          66.6180   93.9002   10.8745 N.am    1  UNL1       -0.2709
     14 C          65.9359   94.8338   11.8301 C.3     1  UNL1        0.1258
     15 C          65.9510   96.3117   11.5742 C.3     1  UNL1        0.1637
     16 O          66.6481   96.8560   10.3626 O.3     1  UNL1       -0.3501
     17 C          67.3301   95.9224    9.4071 C.3     1  UNL1        0.1637
     18 C          67.3151   94.4445    9.6630 C.3     1  UNL1        0.1258
     19 N          63.8150   90.2447   15.9766 N.pl3   1  UNL1       -0.3108
     20 H          63.4570   90.8601   16.6566 H       1  UNL1        0.1489
     21 C          63.6634   88.7628   16.1521 C.ar    1  UNL1        0.0470
     22 C          62.9104   88.2203   17.3306 C.ar    1  UNL1        0.0144
     23 C          62.7588   86.7383   17.5061 C.ar    1  UNL1        0.0021
     24 C          63.3602   85.7989   16.5031 C.ar    1  UNL1        0.0115
     25 C          64.1130   86.3414   15.3247 C.ar    1  UNL1        0.0589
     26 CL         64.7143   85.4020   14.3217 Cl      1  UNL1       -0.0822
     27 C          64.2647   87.8234   15.1491 C.ar    1  UNL1        0.0257
@<TRIPOS>BOND
     1     1     2    1
     2     2     3    2
     3     3     4    1
     4     4     5    2
     5     5     6    1
     6     6    19    1
     7    19    21    1
     8    21    22   ar
     9    22    23   ar
    10    23    24   ar
    11    24    25   ar
    12    25    26    1
    13    25    27   ar
    14     6     7    1
    15     7     8    2
    16     8     9    1
    17     9    11    1
    18    11    12    2
    19    11    13   am
    20    13    14    1
    21    14    15    1
    22    15    16    1
    23    16    17    1
    24    17    18    1
    25     9    10    2
    26    10     2    1
    27    10     5    1
    28    27    21   ar
    29    18    13    1
    30    19    20    1
@<TRIPOS>MOLECULE
*****
 27 30 0 0 0
SMALL
GASTEIGER

@<TRIPOS>ATOM
      1 C          66.0095   93.7276   12.4124 C.3     1  UNL1        0.0327
      2 C          65.0646   92.6910   11.8807 C.2     1  UNL1       -0.0013
      3 C          64.5452   92.6091   10.4759 C.2     1  UNL1        0.0943
      4 N          63.6328   91.4217   10.3875 N.2     1  UNL1       -0.2449
      5 C          63.5884   90.7698   11.7377 C.2     1  UNL1        0.0999
      6 C          62.8565   89.5632   12.2460 C.3     1  UNL1        0.2160
      7 N          63.0095   89.1410   13.6772 N.2     1  UNL1       -0.2447
      8 C          63.8943   89.9254   14.6000 C.2     1  UNL1        0.1000
      9 C          64.6263   91.1321   14.0917 C.2     1  UNL1        0.0733
     10 C          64.4733   91.5542   12.6605 C.2     1  UNL1        0.0205
     11 C          65.5111   91.9165   15.0147 C.2     1  UNL1        0.2507
     12 O          64.9392   92.5363   16.2551 O.2     1  UNL1       -0.2698
     13 N          66.9678   92.0810   14.6971 N.am    1  UNL1       -0.2709
     14 C          67.5398   91.4612   13.4567 C.3     1  UNL1        0.1258
     15 C          68.9966   91.6258   13.1393 C.3     1  UNL1        0.1637
     16 O          69.8813   92.4102   14.0623 O.3     1  UNL1       -0.3501
     17 C          69.3094   93.0300   15.3027 C.3     1  UNL1        0.1637
     18 C          67.8526   92.8654   15.6201 C.3     1  UNL1        0.1258
     19 N          61.9716   88.7787   11.3232 N.pl3   1  UNL1       -0.3108
     20 H          61.1644   89.1950   10.9433 H       1  UNL1        0.1489
     21 C          62.3167   87.3601   10.9792 C.ar    1  UNL1        0.0470
     22 C          62.5568   86.3606   12.0716 C.ar    1  UNL1        0.0144
     23 C          62.9018   84.9419   11.7276 C.ar    1  UNL1        0.0021
     24 C          63.0068   84.5228   10.2911 C.ar    1  UNL1        0.0115
     25 C          62.7667   85.5222    9.1988 C.ar    1  UNL1        0.0589
     26 CL         62.8716   85.1031    7.7624 Cl      1  UNL1       -0.0822
     27 C          62.4216   86.9409    9.5428 C.ar    1  UNL1        0.0257
@<TRIPOS>BOND
     1     1     2    1
     2     2     3    2
     3     3     4    1
     4     4     5    2
     5     5     6    1
     6     6    19    1
     7    19    21    1
     8    21    22   ar
     9    22    23   ar
    10    23    24   ar
    11    24    25   ar
    12    25    26    1
    13    25    27   ar
    14     6     7    1
    15     7     8    2
    16     8     9    1
    17     9    11    1
    18    11    12    2
    19    11    13   am
    20    13    14    1
    21    14    15    1
    22    15    16    1
    23    16    17    1
    24    17    18    1
    25     9    10    2
    26    10     2    1
    27    10     5    1
    28    27    21   ar
    29    18    13    1
    30    19    20    1
@<TRIPOS>MOLECULE
*****
 27 30 0 0 0
SMALL
GASTEIGER

@<TRIPOS>ATOM
      1 C          63.5524   92.2168   12.3429 C.3     1  UNL1        0.0327
      2 C          63.3290   90.7711   12.0115 C.2     1  UNL1       -0.0013
      3 C          62.8237   90.2338   10.7054 C.2     1  UNL1        0.0943
      4 N          62.7541   88.7394   10.8146 N.2     1  UNL1       -0.2449
      5 C          63.2164   88.3530   12.1882 C.2     1  UNL1        0.0999
      6 C          63.3598   87.0201   12.8611 C.3     1  UNL1        0.2160
      7 N          63.8584   86.9428   14.2737 N.2     1  UNL1       -0.2447
      8 C          64.2137   88.1983   15.0133 C.2     1  UNL1        0.1000
      9 C          64.0704   89.5314   14.3405 C.2     1  UNL1        0.0733
     10 C          63.5717   89.6087   12.9280 C.2     1  UNL1        0.0205
     11 C          64.4257   90.7870   15.0803 C.2     1  UNL1        0.2507
     12 O          63.4896   91.3385   16.1144 O.2     1  UNL1       -0.2698
     13 N          65.7171   91.4909   14.7860 N.am    1  UNL1       -0.2709
     14 C          66.6533   90.9394   13.7518 C.3     1  UNL1        0.1258
     15 C          67.9446   91.6434   13.4575 C.3     1  UNL1        0.1637
     16 O          68.2999   92.8990   14.1974 O.3     1  UNL1       -0.3501
     17 C          67.3638   93.4505   15.2315 C.3     1  UNL1        0.1637
     18 C          66.0724   92.7465   15.5258 C.3     1  UNL1        0.1258
     19 N          63.0045   85.7645   12.1214 N.pl3   1  UNL1       -0.3108
     20 H          62.9057   85.7813   11.1420 H       1  UNL1        0.1489
     21 C          62.7996   84.4832   12.8739 C.ar    1  UNL1        0.0470
     22 C          62.5353   84.5145   14.3501 C.ar    1  UNL1        0.0144
     23 C          62.3305   83.2331   15.1026 C.ar    1  UNL1        0.0021
     24 C          62.3899   81.9205   14.3789 C.ar    1  UNL1        0.0115
     25 C          62.6541   81.8893   12.9028 C.ar    1  UNL1        0.0589
     26 CL         62.7135   80.5768   12.1790 Cl      1  UNL1       -0.0822
     27 C          62.8590   83.1707   12.1502 C.ar    1  UNL1        0.0257
@<TRIPOS>BOND
     1     1     2    1
     2     2     3    2
     3     3     4    1
     4     4     5    2
     5     5     6    1
     6     6    19    1
     7    19    21    1
     8    21    22   ar
     9    22    23   ar
    10    23    24   ar
    11    24    25   ar
    12    25    26    1
    13    25    27   ar
    14     6     7    1
    15     7     8    2
    16     8     9    1
    17     9    11    1
    18    11    12    2
    19    11    13   am
    20    13    14    1
    21    14    15    1
    22    15    16    1
    23    16    17    1
    24    17    18    1
    25     9    10    2
    26    10     2    1
    27    10     5    1
    28    27    21   ar
    29    18    13    1
    30    19    20    1
@<TRIPOS>MOLECULE
*****
 27 30 0 0 0
SMALL
GASTEIGER

@<TRIPOS>ATOM
      1 C          63.7041   92.3302   12.3078 C.3     1  UNL1        0.0327
      2 C          63.4469   90.8881   11.9848 C.2     1  UNL1       -0.0013
      3 C          62.9598   90.3521   10.6713 C.2     1  UNL1        0.0943
      4 N          62.8436   88.8615   10.7933 N.2     1  UNL1       -0.2449
      5 C          63.2588   88.4764   12.1823 C.2     1  UNL1        0.0999
      6 C          63.3456   87.1470   12.8716 C.3     1  UNL1        0.2160
      7 N          63.8052   87.0702   14.2974 N.2     1  UNL1       -0.2447
      8 C          64.1781   88.3226   15.0337 C.2     1  UNL1        0.1000
      9 C          64.0914   89.6520   14.3444 C.2     1  UNL1        0.0733
     10 C          63.6317   89.7289   12.9186 C.2     1  UNL1        0.0205
     11 C          64.4643   90.9045   15.0808 C.2     1  UNL1        0.2507
     12 O          63.5180   91.4944   16.0841 O.2     1  UNL1       -0.2698
     13 N          65.7833   91.5669   14.8140 N.am    1  UNL1       -0.2709
     14 C          66.7295   90.9770   13.8107 C.3     1  UNL1        0.1258
     15 C          68.0486   91.6395   13.5438 C.3     1  UNL1        0.1637
     16 O          68.4214   92.8919   14.2803 O.3     1  UNL1       -0.3501
     17 C          67.4752   93.4819   15.2836 C.3     1  UNL1        0.1637
     18 C          66.1561   92.8194   15.5505 C.3     1  UNL1        0.1258
     19 N          62.9727   85.8946   12.1353 N.pl3   1  UNL1       -0.3108
     20 H          63.2116   85.0150   12.5076 H       1  UNL1        0.1489
     21 C          62.2359   85.9821   10.8317 C.ar    1  UNL1        0.0470
     22 C          60.8952   86.6522   10.7715 C.ar    1  UNL1        0.0144
     23 C          60.1584   86.7397    9.4679 C.ar    1  UNL1        0.0021
     24 C          60.7623   86.1572    8.2244 C.ar    1  UNL1        0.0115
     25 C          62.1029   85.4873    8.2846 C.ar    1  UNL1        0.0589
     26 CL         62.7068   84.9048    7.0412 Cl      1  UNL1       -0.0822
     27 C          62.8398   85.3997    9.5883 C.ar    1  UNL1        0.0257
@<TRIPOS>BOND
     1     1     2    1
     2     2     3    2
     3     3     4    1
     4     4     5    2
     5     5     6    1
     6     6    19    1
     7    19    21    1
     8    21    22   ar
     9    22    23   ar
    10    23    24   ar
    11    24    25   ar
    12    25    26    1
    13    25    27   ar
    14     6     7    1
    15     7     8    2
    16     8     9    1
    17     9    11    1
    18    11    12    2
    19    11    13   am
    20    13    14    1
    21    14    15    1
    22    15    16    1
    23    16    17    1
    24    17    18    1
    25     9    10    2
    26    10     2    1
    27    10     5    1
    28    27    21   ar
    29    18    13    1
    30    19    20    1
@<TRIPOS>MOLECULE
*****
 27 30 0 0 0
SMALL
GASTEIGER

@<TRIPOS>ATOM
      1 C          62.3406   89.0749    9.9919 C.3     1  UNL1        0.0327
      2 C          62.5140   87.9937   11.0171 C.2     1  UNL1       -0.0013
      3 C          62.0930   86.5617   10.8681 C.2     1  UNL1        0.0943
      4 N          62.4576   85.8376   12.1302 N.2     1  UNL1       -0.2449
      5 C          63.1039   86.8221   13.0592 C.2     1  UNL1        0.0999
      6 C          63.6652   86.6774   14.4427 C.3     1  UNL1        0.2160
      7 N          64.2614   87.8652   15.1382 N.2     1  UNL1       -0.2447
      8 C          64.2962   89.1976   14.4503 C.2     1  UNL1        0.1000
      9 C          63.7349   89.3424   13.0668 C.2     1  UNL1        0.0733
     10 C          63.1387   88.1546   12.3713 C.2     1  UNL1        0.0205
     11 C          63.7697   90.6750   12.3789 C.2     1  UNL1        0.2507
     12 O          62.6373   91.0879   11.4862 O.2     1  UNL1       -0.2698
     13 N          64.9370   91.5944   12.5838 N.am    1  UNL1       -0.2709
     14 C          66.0694   91.1815   13.4765 C.3     1  UNL1        0.1258
     15 C          67.2367   92.1010   13.6814 C.3     1  UNL1        0.1637
     16 O          67.2714   93.4335   12.9935 O.3     1  UNL1       -0.3501
     17 C          66.1390   93.8465   12.1007 C.3     1  UNL1        0.1637
     18 C          64.9718   92.9270   11.8959 C.3     1  UNL1        0.1258
     19 N          63.6304   85.3449   15.1306 N.pl3   1  UNL1       -0.3108
     20 H          63.6854   85.2962   16.1123 H       1  UNL1        0.1489
     21 C          63.5118   84.0866   14.3227 C.ar    1  UNL1        0.0470
     22 C          64.5496   83.7572   13.2910 C.ar    1  UNL1        0.0144
     23 C          64.4310   82.4989   12.4831 C.ar    1  UNL1        0.0021
     24 C          63.2745   81.5701   12.7070 C.ar    1  UNL1        0.0115
     25 C          62.2369   81.8995   13.7387 C.ar    1  UNL1        0.0589
     26 CL         61.0805   80.9707   13.9626 Cl      1  UNL1       -0.0822
     27 C          62.3554   83.1578   14.5466 C.ar    1  UNL1        0.0257
@<TRIPOS>BOND
     1     1     2    1
     2     2     3    2
     3     3     4    1
     4     4     5    2
     5     5     6    1
     6     6    19    1
     7    19    21    1
     8    21    22   ar
     9    22    23   ar
    10    23    24   ar
    11    24    25   ar
    12    25    26    1
    13    25    27   ar
    14     6     7    1
    15     7     8    2
    16     8     9    1
    17     9    11    1
    18    11    12    2
    19    11    13   am
    20    13    14    1
    21    14    15    1
    22    15    16    1
    23    16    17    1
    24    17    18    1
    25     9    10    2
    26    10     2    1
    27    10     5    1
    28    27    21   ar
    29    18    13    1
    30    19    20    1
@<TRIPOS>MOLECULE
*****
 27 30 0 0 0
SMALL
GASTEIGER

@<TRIPOS>ATOM
      1 C          48.1533   77.6253   19.4330 C.3     1  UNL1        0.0327
      2 C          47.6965   76.2161   19.1979 C.2     1  UNL1       -0.0013
      3 C          48.4932   74.9742   19.4681 C.2     1  UNL1        0.0943
      4 N          47.6518   73.7919   19.0884 N.2     1  UNL1       -0.2449
      5 C          46.3351   74.3030   18.5836 C.2     1  UNL1        0.0999
      6 C          45.1145   73.5977   18.0710 C.3     1  UNL1        0.2160
      7 N          43.9215   74.3906   17.6261 N.2     1  UNL1       -0.2447
      8 C          43.9491   75.8888   17.6937 C.2     1  UNL1        0.1000
      9 C          45.1697   76.5941   18.2063 C.2     1  UNL1        0.0733
     10 C          46.3627   75.8012   18.6512 C.2     1  UNL1        0.0205
     11 C          45.1972   78.0924   18.2739 C.2     1  UNL1        0.2507
     12 O          45.4901   78.8935   17.0401 O.2     1  UNL1       -0.2698
     13 N          44.9319   78.7894   19.5753 N.am    1  UNL1       -0.2709
     14 C          44.6390   77.9883   20.8092 C.3     1  UNL1        0.1258
     15 C          44.3737   78.6854   22.1106 C.3     1  UNL1        0.1637
     16 O          44.4012   80.1836   22.1781 O.3     1  UNL1       -0.3501
     17 C          44.6941   80.9848   20.9442 C.3     1  UNL1        0.1637
     18 C          44.9594   80.2877   19.6429 C.3     1  UNL1        0.1258
     19 N          45.0869   72.0995   18.0034 N.pl3   1  UNL1       -0.3108
     20 H          45.0367   71.5701   18.8319 H       1  UNL1        0.1489
     21 C          45.1357   71.4077   16.6733 C.ar    1  UNL1        0.0470
     22 C          44.2728   71.8900   15.5450 C.ar    1  UNL1        0.0144
     23 C          44.3217   71.1982   14.2150 C.ar    1  UNL1        0.0021
     24 C          45.2334   70.0242   14.0132 C.ar    1  UNL1        0.0115
     25 C          46.0962   69.5421   15.1414 C.ar    1  UNL1        0.0589
     26 CL         47.0079   68.3682   14.9396 Cl      1  UNL1       -0.0822
     27 C          46.0474   70.2338   16.4715 C.ar    1  UNL1        0.0257
@<TRIPOS>BOND
     1     1     2    1
     2     2     3    2
     3     3     4    1
     4     4     5    2
     5     5     6    1
     6     6    19    1
     7    19    21    1
     8    21    22   ar
     9    22    23   ar
    10    23    24   ar
    11    24    25   ar
    12    25    26    1
    13    25    27   ar
    14     6     7    1
    15     7     8    2
    16     8     9    1
    17     9    11    1
    18    11    12    2
    19    11    13   am
    20    13    14    1
    21    14    15    1
    22    15    16    1
    23    16    17    1
    24    17    18    1
    25     9    10    2
    26    10     2    1
    27    10     5    1
    28    27    21   ar
    29    18    13    1
    30    19    20    1
@<TRIPOS>MOLECULE
*****
 27 30 0 0 0
SMALL
GASTEIGER

@<TRIPOS>ATOM
      1 C          62.0808   88.3123    9.6224 C.3     1  UNL1        0.0327
      2 C          62.5412   89.2116   10.7312 C.2     1  UNL1       -0.0013
      3 C          62.6145   90.7089   10.6792 C.2     1  UNL1        0.0943
      4 N          63.1277   91.1941   12.0024 N.2     1  UNL1       -0.2449
      5 C          63.3717   89.9967   12.8723 C.2     1  UNL1        0.0999
      6 C          63.8771   89.8638   14.2783 C.3     1  UNL1        0.2160
      7 N          64.0201   88.5056   14.8986 N.2     1  UNL1       -0.2447
      8 C          63.6576   87.2803   14.1130 C.2     1  UNL1        0.1000
      9 C          63.1521   87.4132   12.7069 C.2     1  UNL1        0.0733
     10 C          63.0092   88.7714   12.0866 C.2     1  UNL1        0.0205
     11 C          62.7897   86.1879   11.9213 C.2     1  UNL1        0.2507
     12 O          61.9938   86.3163   10.6563 O.2     1  UNL1       -0.2698
     13 N          63.2231   84.8342   12.4006 N.am    1  UNL1       -0.2709
     14 C          64.0189   84.7058   13.6655 C.3     1  UNL1        0.1258
     15 C          64.4523   83.3521   14.1448 C.3     1  UNL1        0.1637
     16 O          64.0898   82.1269   13.3591 O.3     1  UNL1       -0.3501
     17 C          63.2939   82.2553   12.0941 C.3     1  UNL1        0.1637
     18 C          62.8605   83.6090   11.6149 C.3     1  UNL1        0.1258
     19 N          64.2396   91.0890   15.0640 N.pl3   1  UNL1       -0.3108
     20 H          63.5611   91.5358   15.6201 H       1  UNL1        0.1489
     21 C          65.6359   91.6336   15.0025 C.ar    1  UNL1        0.0470
     22 C          66.1789   92.4366   16.1472 C.ar    1  UNL1        0.0144
     23 C          67.5752   92.9812   16.0857 C.ar    1  UNL1        0.0021
     24 C          68.4285   92.7227   14.8793 C.ar    1  UNL1        0.0115
     25 C          67.8856   91.9198   13.7347 C.ar    1  UNL1        0.0589
     26 CL         68.7388   91.6613   12.5284 Cl      1  UNL1       -0.0822
     27 C          66.4892   91.3752   13.7962 C.ar    1  UNL1        0.0257
@<TRIPOS>BOND
     1     1     2    1
     2     2     3    2
     3     3     4    1
     4     4     5    2
     5     5     6    1
     6     6    19    1
     7    19    21    1
     8    21    22   ar
     9    22    23   ar
    10    23    24   ar
    11    24    25   ar
    12    25    26    1
    13    25    27   ar
    14     6     7    1
    15     7     8    2
    16     8     9    1
    17     9    11    1
    18    11    12    2
    19    11    13   am
    20    13    14    1
    21    14    15    1
    22    15    16    1
    23    16    17    1
    24    17    18    1
    25     9    10    2
    26    10     2    1
    27    10     5    1
    28    27    21   ar
    29    18    13    1
    30    19    20    1
@<TRIPOS>MOLECULE
*****
 27 30 0 0 0
SMALL
GASTEIGER

@<TRIPOS>ATOM
      1 C          48.1199   77.2046   20.1510 C.3     1  UNL1        0.0327
      2 C          47.6568   75.8273   19.7789 C.2     1  UNL1       -0.0013
      3 C          48.5384   74.6627   19.4377 C.2     1  UNL1        0.0943
      4 N          47.6572   73.4884   19.1306 N.2     1  UNL1       -0.2449
      5 C          46.2308   73.9272   19.2819 C.2     1  UNL1        0.0999
      6 C          44.9321   73.1973   19.1066 C.3     1  UNL1        0.2160
      7 N          43.6333   73.9129   19.3320 N.2     1  UNL1       -0.2447
      8 C          43.6330   75.3583   19.7326 C.2     1  UNL1        0.1000
      9 C          44.9317   76.0883   19.9080 C.2     1  UNL1        0.0733
     10 C          46.2306   75.3727   19.6826 C.2     1  UNL1        0.0205
     11 C          44.9314   77.5338   20.3087 C.2     1  UNL1        0.2507
     12 O          44.8952   77.9096   21.7604 O.2     1  UNL1       -0.2698
     13 N          44.9671   78.6034   19.2577 N.am    1  UNL1       -0.2709
     14 C          45.0033   78.2276   17.8060 C.3     1  UNL1        0.1258
     15 C          45.0390   79.2973   16.7550 C.3     1  UNL1        0.1637
     16 O          45.0387   80.7428   17.1558 O.3     1  UNL1       -0.3501
     17 C          45.0026   81.1186   18.6075 C.3     1  UNL1        0.1637
     18 C          44.9668   80.0489   19.6584 C.3     1  UNL1        0.1258
     19 N          44.9324   71.7518   18.7059 N.pl3   1  UNL1       -0.3108
     20 H          44.8412   71.0510   19.3913 H       1  UNL1        0.1489
     21 C          45.0715   71.3740   17.2609 C.ar    1  UNL1        0.0470
     22 C          44.3559   72.1655   16.2066 C.ar    1  UNL1        0.0144
     23 C          44.4950   71.7878   14.7616 C.ar    1  UNL1        0.0021
     24 C          45.3498   70.6186   14.3710 C.ar    1  UNL1        0.0115
     25 C          46.0654   69.8272   15.4253 C.ar    1  UNL1        0.0589
     26 CL         46.9201   68.6581   15.0347 Cl      1  UNL1       -0.0822
     27 C          45.9263   70.2049   16.8703 C.ar    1  UNL1        0.0257
@<TRIPOS>BOND
     1     1     2    1
     2     2     3    2
     3     3     4    1
     4     4     5    2
     5     5     6    1
     6     6    19    1
     7    19    21    1
     8    21    22   ar
     9    22    23   ar
    10    23    24   ar
    11    24    25   ar
    12    25    26    1
    13    25    27   ar
    14     6     7    1
    15     7     8    2
    16     8     9    1
    17     9    11    1
    18    11    12    2
    19    11    13   am
    20    13    14    1
    21    14    15    1
    22    15    16    1
    23    16    17    1
    24    17    18    1
    25     9    10    2
    26    10     2    1
    27    10     5    1
    28    27    21   ar
    29    18    13    1
    30    19    20    1
