@<TRIPOS>MOLECULE
*****
 35 38 0 0 0
SMALL
GASTEIGER

@<TRIPOS>ATOM
      1 C          61.1865   89.1100   10.6271 C.ar    1  UNL1        0.1391
      2 C          61.5635   90.0194    9.4954 C.ar    1  UNL1        0.0369
      3 C          62.6942   90.9913    9.6590 C.ar    1  UNL1        0.0031
      4 C          63.4479   91.0538   10.9543 C.ar    1  UNL1       -0.0001
      5 C          64.5787   92.0258   11.1179 C.ar    1  UNL1       -0.0024
      6 C          65.3324   92.0884   12.4133 C.ar    1  UNL1       -0.0004
      7 C          64.9554   91.1790   13.5451 C.ar    1  UNL1       -0.0024
      8 C          63.8247   90.2070   13.3815 C.ar    1  UNL1       -0.0002
      9 C          63.0709   90.1445   12.0861 C.ar    1  UNL1        0.0030
     10 C          61.9402   89.1726   11.9225 C.ar    1  UNL1        0.0369
     11 O          60.0557   88.1380   10.4635 O.3     1  UNL1       -0.4706
     12 C          60.2412   86.9052    9.6295 C.3     1  UNL1        0.2320
     13 C          63.5760   84.0336   10.5690 C.ar    1  UNL1        0.1394
     14 C          63.2996   84.4227    9.1470 C.ar    1  UNL1        0.0367
     15 C          62.1881   85.3799    8.8338 C.ar    1  UNL1        0.0024
     16 C          61.3528   85.9480    9.9426 C.ar    1  UNL1        0.0214
     17 C          61.6292   85.5589   11.3647 C.ar    1  UNL1        0.0024
     18 C          62.7408   84.6017   11.6779 C.ar    1  UNL1        0.0367
     19 O          64.6876   83.0764   10.8822 O.3     1  UNL1       -0.4638
     20 C          64.6590   82.2844   12.1557 C.3     1  UNL1        0.3141
     21 C          63.4429   81.4821   12.5127 C.2     1  UNL1        0.3621
     22 O          62.8042   80.5921   11.4881 O.2     1  UNL1       -0.2459
     23 C          61.4496   81.1421   14.1442 C.3     1  UNL1        0.2557
     24 O          62.8654   81.5699   13.8944 O.3     1  UNL1       -0.4418
     25 C          66.4631   93.0603   12.5769 C.3     1  UNL1        0.1240
     26 N          67.3113   93.0229   13.8135 N.ar    1  UNL1       -0.3045
     27 C          67.1722   93.9225   15.0057 C.ar    1  UNL1        0.0983
     28 C          68.2224   93.5348   16.0040 C.ar    1  UNL1        0.1193
     29 N          69.0107   92.3957   15.4288 N.ar    1  UNL1       -0.2223
     30 C          68.4476   92.0793   14.0750 C.ar    1  UNL1        0.1788
     31 C          66.7457   94.0697   11.5039 C.3     1  UNL1        0.0827
     32 C          66.2052   95.4637   11.6245 C.3     1  UNL1        0.0197
     33 N          67.5688   93.6851   10.3103 N.3     1  UNL1       -0.2696
     34 C          68.1894   92.3216   10.2352 C.3     1  UNL1        0.0897
     35 C          67.7713   94.6641    9.1919 C.3     1  UNL1        0.0897
@<TRIPOS>BOND
     1    23    24    1
     2    24    21    1
     3    21    22    2
     4    21    20    1
     5    20    19    1
     6    19    13    1
     7    13    14   ar
     8    14    15   ar
     9    15    16   ar
    10    16    12    1
    11    12    11    1
    12    11     1    1
    13     1     2   ar
    14     2     3   ar
    15     3     4   ar
    16     4     5   ar
    17     5     6   ar
    18     6    25    1
    19    25    31    1
    20    31    32    1
    21    31    33    1
    22    33    34    1
    23    33    35    1
    24    25    26    1
    25    26    27   ar
    26    27    28   ar
    27    28    29   ar
    28    29    30   ar
    29     6     7   ar
    30     7     8   ar
    31     8     9   ar
    32     9    10   ar
    33    16    17   ar
    34    17    18   ar
    35    18    13   ar
    36    10     1   ar
    37     9     4   ar
    38    30    26   ar
@<TRIPOS>MOLECULE
*****
 35 38 0 0 0
SMALL
GASTEIGER

@<TRIPOS>ATOM
      1 C          61.1586   89.1282   10.5981 C.ar    1  UNL1        0.1391
      2 C          61.5495   90.0847    9.5108 C.ar    1  UNL1        0.0369
      3 C          62.6952   91.0300    9.7196 C.ar    1  UNL1        0.0031
      4 C          63.4500   91.0188   11.0158 C.ar    1  UNL1       -0.0001
      5 C          64.5958   91.9642   11.2247 C.ar    1  UNL1       -0.0024
      6 C          65.3506   91.9530   12.5209 C.ar    1  UNL1       -0.0004
      7 C          64.9596   90.9965   13.6083 C.ar    1  UNL1       -0.0024
      8 C          63.8139   90.0512   13.3994 C.ar    1  UNL1       -0.0002
      9 C          63.0591   90.0624   12.1032 C.ar    1  UNL1        0.0030
     10 C          61.9134   89.1171   11.8943 C.ar    1  UNL1        0.0369
     11 O          60.0128   88.1829   10.3892 O.3     1  UNL1       -0.4706
     12 C          60.1948   86.9598    9.5402 C.3     1  UNL1        0.2320
     13 C          63.5777   84.1159   10.3871 C.ar    1  UNL1        0.1394
     14 C          62.7274   84.6261   11.5124 C.ar    1  UNL1        0.0367
     15 C          61.5997   85.5741   11.2302 C.ar    1  UNL1        0.0024
     16 C          61.3225   86.0118    9.8225 C.ar    1  UNL1        0.0214
     17 C          62.1728   85.5015    8.6971 C.ar    1  UNL1        0.0024
     18 C          63.3005   84.5535    8.9794 C.ar    1  UNL1        0.0367
     19 O          64.7054   83.1678   10.6694 O.3     1  UNL1       -0.4638
     20 C          64.8386   82.5438   12.0269 C.3     1  UNL1        0.3141
     21 C          63.7175   81.7193   12.5866 C.2     1  UNL1        0.3621
     22 O          62.9071   80.8413   11.6798 O.2     1  UNL1       -0.2459
     23 C          62.1005   82.3414   14.5227 C.3     1  UNL1        0.2557
     24 O          63.4067   81.7729   14.0531 O.3     1  UNL1       -0.4418
     25 C          66.4964   92.8983   12.7298 C.3     1  UNL1        0.1240
     26 N          66.5820   94.1621   11.9265 N.ar    1  UNL1       -0.3045
     27 C          66.9913   94.2660   10.4872 C.ar    1  UNL1        0.0983
     28 C          66.9356   95.7121   10.0926 C.ar    1  UNL1        0.1193
     29 N          66.4918   96.5020   11.2881 N.ar    1  UNL1       -0.2223
     30 C          66.2732   95.5441   12.4214 C.ar    1  UNL1        0.1788
     31 C          67.5566   92.5797   13.7420 C.3     1  UNL1        0.0827
     32 C          68.7239   91.7188   13.3598 C.3     1  UNL1        0.0197
     33 N          67.4494   93.1221   15.1364 N.3     1  UNL1       -0.2696
     34 C          66.2598   92.7815   15.9842 C.3     1  UNL1        0.0897
     35 C          68.5319   94.0051   15.6830 C.3     1  UNL1        0.0897
@<TRIPOS>BOND
     1    23    24    1
     2    24    21    1
     3    21    22    2
     4    21    20    1
     5    20    19    1
     6    19    13    1
     7    13    14   ar
     8    14    15   ar
     9    15    16   ar
    10    16    12    1
    11    12    11    1
    12    11     1    1
    13     1     2   ar
    14     2     3   ar
    15     3     4   ar
    16     4     5   ar
    17     5     6   ar
    18     6    25    1
    19    25    31    1
    20    31    32    1
    21    31    33    1
    22    33    34    1
    23    33    35    1
    24    25    26    1
    25    26    27   ar
    26    27    28   ar
    27    28    29   ar
    28    29    30   ar
    29     6     7   ar
    30     7     8   ar
    31     8     9   ar
    32     9    10   ar
    33    16    17   ar
    34    17    18   ar
    35    18    13   ar
    36    10     1   ar
    37     9     4   ar
    38    30    26   ar
@<TRIPOS>MOLECULE
*****
 35 38 0 0 0
SMALL
GASTEIGER

@<TRIPOS>ATOM
      1 C          60.4476   87.3638    8.2467 C.ar    1  UNL1        0.1391
      2 C          59.9476   87.8829    9.5622 C.ar    1  UNL1        0.0369
      3 C          60.4492   87.2859   10.8435 C.ar    1  UNL1        0.0031
      4 C          61.4508   86.1697   10.8094 C.ar    1  UNL1       -0.0001
      5 C          61.9524   85.5727   12.0908 C.ar    1  UNL1       -0.0024
      6 C          62.9539   84.4566   12.0567 C.ar    1  UNL1       -0.0004
      7 C          63.4539   83.9375   10.7411 C.ar    1  UNL1       -0.0024
      8 C          62.9523   84.5345    9.4597 C.ar    1  UNL1       -0.0002
      9 C          61.9507   85.6507    9.4939 C.ar    1  UNL1        0.0030
     10 C          61.4491   86.2477    8.2125 C.ar    1  UNL1        0.0369
     11 O          59.9459   87.9609    6.9652 O.3     1  UNL1       -0.4706
     12 C          59.0614   89.1718    6.9977 C.3     1  UNL1        0.2320
     13 C          59.5395   92.3913    3.8903 C.ar    1  UNL1        0.1394
     14 C          58.1760   92.0524    4.4154 C.ar    1  UNL1        0.0367
     15 C          58.0166   90.9792    5.4512 C.ar    1  UNL1        0.0024
     16 C          59.2208   90.2451    5.9619 C.ar    1  UNL1        0.0214
     17 C          60.5844   90.5840    5.4367 C.ar    1  UNL1        0.0024
     18 C          60.7437   91.6571    4.4009 C.ar    1  UNL1        0.0367
     19 O          59.6989   93.4645    2.8544 O.3     1  UNL1       -0.4638
     20 C          59.8038   93.0972    1.4039 C.3     1  UNL1        0.3141
     21 C          61.1188   93.2190    0.6927 C.2     1  UNL1        0.3621
     22 O          61.2493   92.7542   -0.7275 O.2     1  UNL1       -0.2459
     23 C          63.2741   92.9074    2.1098 C.3     1  UNL1        0.2557
     24 O          62.3035   93.8055    1.4017 O.3     1  UNL1       -0.4418
     25 C          63.4555   83.8595   13.3380 C.3     1  UNL1        0.1240
     26 N          63.1801   82.4190   13.6526 N.ar    1  UNL1       -0.3045
     27 C          61.8268   81.8026   13.8492 C.ar    1  UNL1        0.0983
     28 C          62.0199   80.3445   14.1439 C.ar    1  UNL1        0.1193
     29 N          63.4926   80.0598   14.1294 N.ar    1  UNL1       -0.2223
     30 C          64.2096   81.3419   13.8258 C.ar    1  UNL1        0.1788
     31 C          64.2326   84.7030   14.3048 C.3     1  UNL1        0.0827
     32 C          65.7303   84.7413   14.2313 C.3     1  UNL1        0.0197
     33 N          63.5120   85.5082   15.3452 N.3     1  UNL1       -0.2696
     34 C          62.4003   84.8867   16.1375 C.3     1  UNL1        0.0897
     35 C          63.9030   86.9350   15.5932 C.3     1  UNL1        0.0897
@<TRIPOS>BOND
     1    23    24    1
     2    24    21    1
     3    21    22    2
     4    21    20    1
     5    20    19    1
     6    19    13    1
     7    13    14   ar
     8    14    15   ar
     9    15    16   ar
    10    16    12    1
    11    12    11    1
    12    11     1    1
    13     1     2   ar
    14     2     3   ar
    15     3     4   ar
    16     4     5   ar
    17     5     6   ar
    18     6    25    1
    19    25    31    1
    20    31    32    1
    21    31    33    1
    22    33    34    1
    23    33    35    1
    24    25    26    1
    25    26    27   ar
    26    27    28   ar
    27    28    29   ar
    28    29    30   ar
    29     6     7   ar
    30     7     8   ar
    31     8     9   ar
    32     9    10   ar
    33    16    17   ar
    34    17    18   ar
    35    18    13   ar
    36    10     1   ar
    37     9     4   ar
    38    30    26   ar
@<TRIPOS>MOLECULE
*****
 35 38 0 0 0
SMALL
GASTEIGER

@<TRIPOS>ATOM
      1 C          59.0238   90.1390    6.0807 C.ar    1  UNL1        0.1391
      2 C          57.9254   90.9809    5.5022 C.ar    1  UNL1        0.0369
      3 C          58.2214   91.9332    4.3817 C.ar    1  UNL1        0.0031
      4 C          59.6157   92.0436    3.8398 C.ar    1  UNL1       -0.0001
      5 C          59.9116   92.9960    2.7193 C.ar    1  UNL1       -0.0024
      6 C          61.3059   93.1065    2.1774 C.ar    1  UNL1       -0.0004
      7 C          62.4044   92.2646    2.7560 C.ar    1  UNL1       -0.0024
      8 C          62.1084   91.3122    3.8765 C.ar    1  UNL1       -0.0002
      9 C          60.7141   91.2018    4.4184 C.ar    1  UNL1        0.0030
     10 C          60.4181   90.2495    5.5389 C.ar    1  UNL1        0.0369
     11 O          58.7279   89.1866    7.2013 O.3     1  UNL1       -0.4706
     12 C          59.7253   88.1286    7.5694 C.3     1  UNL1        0.2320
     13 C          62.1709   88.5503   11.3233 C.ar    1  UNL1        0.1394
     14 C          61.4404   89.7364   10.7668 C.ar    1  UNL1        0.0367
     15 C          60.6253   89.5958    9.5156 C.ar    1  UNL1        0.0024
     16 C          60.5405   88.2692    8.8208 C.ar    1  UNL1        0.0214
     17 C          61.2710   87.0831    9.3772 C.ar    1  UNL1        0.0024
     18 C          62.0862   87.2237   10.6285 C.ar    1  UNL1        0.0367
     19 O          62.9861   88.6909   12.5746 O.3     1  UNL1       -0.4638
     20 C          63.2003   90.0456   13.1819 C.3     1  UNL1        0.3141
     21 C          63.4699   90.1744   14.6518 C.2     1  UNL1        0.3621
     22 O          62.4948   89.6152   15.6450 O.2     1  UNL1       -0.2459
     23 C          65.7841   91.2425   14.1478 C.3     1  UNL1        0.2557
     24 O          64.7147   90.8625   15.1286 O.3     1  UNL1       -0.4418
     25 C          61.6019   94.0588    1.0570 C.3     1  UNL1        0.1240
     26 N          62.9880   94.6051    0.8833 N.ar    1  UNL1       -0.3045
     27 C          64.0159   94.1086   -0.0897 C.ar    1  UNL1        0.0983
     28 C          65.2529   94.9404    0.0778 C.ar    1  UNL1        0.1193
     29 N          64.9894   95.9511    1.1545 N.ar    1  UNL1       -0.2223
     30 C          63.5897   95.7438    1.6523 C.ar    1  UNL1        0.1788
     31 C          60.5116   94.4649    0.1100 C.3     1  UNL1        0.0827
     32 C          59.7579   95.7416    0.3373 C.3     1  UNL1        0.0197
     33 N          60.1752   93.5941   -1.0641 N.3     1  UNL1       -0.2696
     34 C          59.0899   92.5653   -0.9483 C.3     1  UNL1        0.0897
     35 C          60.9243   93.7523   -2.3541 C.3     1  UNL1        0.0897
@<TRIPOS>BOND
     1    23    24    1
     2    24    21    1
     3    21    22    2
     4    21    20    1
     5    20    19    1
     6    19    13    1
     7    13    14   ar
     8    14    15   ar
     9    15    16   ar
    10    16    12    1
    11    12    11    1
    12    11     1    1
    13     1     2   ar
    14     2     3   ar
    15     3     4   ar
    16     4     5   ar
    17     5     6   ar
    18     6    25    1
    19    25    31    1
    20    31    32    1
    21    31    33    1
    22    33    34    1
    23    33    35    1
    24    25    26    1
    25    26    27   ar
    26    27    28   ar
    27    28    29   ar
    28    29    30   ar
    29     6     7   ar
    30     7     8   ar
    31     8     9   ar
    32     9    10   ar
    33    16    17   ar
    34    17    18   ar
    35    18    13   ar
    36    10     1   ar
    37     9     4   ar
    38    30    26   ar
@<TRIPOS>MOLECULE
*****
 35 38 0 0 0
SMALL
GASTEIGER

@<TRIPOS>ATOM
      1 C          59.8027   89.0894    8.0366 C.ar    1  UNL1        0.1391
      2 C          59.3805   87.6851    7.7208 C.ar    1  UNL1        0.0369
      3 C          59.9327   86.5392    8.5157 C.ar    1  UNL1        0.0031
      4 C          60.9072   86.7976    9.6264 C.ar    1  UNL1       -0.0001
      5 C          61.4594   85.6516   10.4214 C.ar    1  UNL1       -0.0024
      6 C          62.4339   85.9100   11.5321 C.ar    1  UNL1       -0.0004
      7 C          62.8561   87.3143   11.8478 C.ar    1  UNL1       -0.0024
      8 C          62.3038   88.4602   11.0529 C.ar    1  UNL1       -0.0002
      9 C          61.3294   88.2018    9.9422 C.ar    1  UNL1        0.0030
     10 C          60.7771   89.3477    9.1473 C.ar    1  UNL1        0.0369
     11 O          59.2504   90.2354    7.2417 O.3     1  UNL1       -0.4706
     12 C          59.0176   90.0825    5.7678 C.3     1  UNL1        0.2320
     13 C          61.1692   92.7598    2.8605 C.ar    1  UNL1        0.1394
     14 C          59.6951   92.9258    3.0833 C.ar    1  UNL1        0.0367
     15 C          58.9779   92.0334    4.0524 C.ar    1  UNL1        0.0024
     16 C          59.7348   90.9750    4.7987 C.ar    1  UNL1        0.0214
     17 C          61.2088   90.8090    4.5758 C.ar    1  UNL1        0.0024
     18 C          61.9260   91.7014    3.6067 C.ar    1  UNL1        0.0367
     19 O          61.8864   93.6523    1.8913 O.3     1  UNL1       -0.4638
     20 C          63.1981   93.2218    1.3048 C.3     1  UNL1        0.3141
     21 C          64.3547   94.1765    1.2729 C.2     1  UNL1        0.3621
     22 O          65.6964   93.7132    0.7879 O.2     1  UNL1       -0.2459
     23 C          65.1405   96.2059    2.6921 C.3     1  UNL1        0.2557
     24 O          64.1695   95.5944    1.7261 O.3     1  UNL1       -0.4418
     25 C          62.9861   84.7641   12.3270 C.3     1  UNL1        0.1240
     26 N          63.1075   84.8751   13.8179 N.ar    1  UNL1       -0.3045
     27 C          64.2208   85.5488   14.5641 C.ar    1  UNL1        0.0983
     28 C          63.9383   85.4220   16.0318 C.ar    1  UNL1        0.1193
     29 N          62.6505   84.6699   16.1927 N.ar    1  UNL1       -0.2223
     30 C          62.1371   84.3319   14.8245 C.ar    1  UNL1        0.1788
     31 C          63.4170   83.5071   11.6309 C.3     1  UNL1        0.0827
     32 C          63.8979   83.5630   10.2113 C.3     1  UNL1        0.0197
     33 N          63.3668   82.1942   12.3546 N.3     1  UNL1       -0.2696
     34 C          62.0703   81.4482   12.4660 C.3     1  UNL1        0.0897
     35 C          64.6134   81.6272   12.9670 C.3     1  UNL1        0.0897
@<TRIPOS>BOND
     1    23    24    1
     2    24    21    1
     3    21    22    2
     4    21    20    1
     5    20    19    1
     6    19    13    1
     7    13    14   ar
     8    14    15   ar
     9    15    16   ar
    10    16    12    1
    11    12    11    1
    12    11     1    1
    13     1     2   ar
    14     2     3   ar
    15     3     4   ar
    16     4     5   ar
    17     5     6   ar
    18     6    25    1
    19    25    31    1
    20    31    32    1
    21    31    33    1
    22    33    34    1
    23    33    35    1
    24    25    26    1
    25    26    27   ar
    26    27    28   ar
    27    28    29   ar
    28    29    30   ar
    29     6     7   ar
    30     7     8   ar
    31     8     9   ar
    32     9    10   ar
    33    16    17   ar
    34    17    18   ar
    35    18    13   ar
    36    10     1   ar
    37     9     4   ar
    38    30    26   ar
@<TRIPOS>MOLECULE
*****
 35 38 0 0 0
SMALL
GASTEIGER

@<TRIPOS>ATOM
      1 C          59.0420   90.1240    6.1185 C.ar    1  UNL1        0.1391
      2 C          57.9365   90.9685    5.5577 C.ar    1  UNL1        0.0369
      3 C          58.2182   91.9253    4.4374 C.ar    1  UNL1        0.0031
      4 C          59.6054   92.0375    3.8779 C.ar    1  UNL1       -0.0001
      5 C          59.8871   92.9944    2.7575 C.ar    1  UNL1       -0.0024
      6 C          61.2743   93.1067    2.1981 C.ar    1  UNL1       -0.0004
      7 C          62.3798   92.2621    2.7590 C.ar    1  UNL1       -0.0024
      8 C          62.0981   91.3053    3.8793 C.ar    1  UNL1       -0.0002
      9 C          60.7109   91.1930    4.4387 C.ar    1  UNL1        0.0030
     10 C          60.4292   90.2362    5.5591 C.ar    1  UNL1        0.0369
     11 O          58.7603   89.1671    7.2389 O.3     1  UNL1       -0.4706
     12 C          59.4303   87.8253    7.2656 C.3     1  UNL1        0.2320
     13 C          61.6607   86.4969   10.9412 C.ar    1  UNL1        0.1394
     14 C          61.9334   85.8405    9.6203 C.ar    1  UNL1        0.0367
     15 C          61.1900   86.2833    8.3951 C.ar    1  UNL1        0.0024
     16 C          60.1738   87.3825    8.4908 C.ar    1  UNL1        0.0214
     17 C          59.9011   88.0389    9.8117 C.ar    1  UNL1        0.0024
     18 C          60.6446   87.5960   11.0369 C.ar    1  UNL1        0.0367
     19 O          62.4042   86.0540   12.1665 O.3     1  UNL1       -0.4638
     20 C          62.7487   84.6060   12.3523 C.3     1  UNL1        0.3141
     21 C          62.7848   84.0146   13.7303 C.2     1  UNL1        0.3621
     22 O          61.9961   84.6466   14.8386 O.2     1  UNL1       -0.2459
     23 C          63.9125   81.8307   12.8882 C.3     1  UNL1        0.2557
     24 O          63.6097   82.7911   13.9999 O.3     1  UNL1       -0.4418
     25 C          61.5560   94.0635    1.0778 C.3     1  UNL1        0.1240
     26 N          62.9346   94.6280    0.9023 N.ar    1  UNL1       -0.3045
     27 C          63.5115   95.7940    1.6489 C.ar    1  UNL1        0.0983
     28 C          64.9118   96.0122    1.1575 C.ar    1  UNL1        0.1193
     29 N          65.2004   94.9810    0.1071 N.ar    1  UNL1       -0.2223
     30 C          63.9784   94.1255   -0.0506 C.ar    1  UNL1        0.1788
     31 C          60.4590   94.4559    0.1328 C.3     1  UNL1        0.0827
     32 C          59.6817   95.7169    0.3683 C.3     1  UNL1        0.0197
     33 N          60.1396   93.5872   -1.0476 N.3     1  UNL1       -0.2696
     34 C          60.9222   93.7319   -2.3190 C.3     1  UNL1        0.0897
     35 C          59.0374   92.5737   -0.9565 C.3     1  UNL1        0.0897
@<TRIPOS>BOND
     1    23    24    1
     2    24    21    1
     3    21    22    2
     4    21    20    1
     5    20    19    1
     6    19    13    1
     7    13    14   ar
     8    14    15   ar
     9    15    16   ar
    10    16    12    1
    11    12    11    1
    12    11     1    1
    13     1     2   ar
    14     2     3   ar
    15     3     4   ar
    16     4     5   ar
    17     5     6   ar
    18     6    25    1
    19    25    31    1
    20    31    32    1
    21    31    33    1
    22    33    34    1
    23    33    35    1
    24    25    26    1
    25    26    27   ar
    26    27    28   ar
    27    28    29   ar
    28    29    30   ar
    29     6     7   ar
    30     7     8   ar
    31     8     9   ar
    32     9    10   ar
    33    16    17   ar
    34    17    18   ar
    35    18    13   ar
    36    10     1   ar
    37     9     4   ar
    38    30    26   ar
@<TRIPOS>MOLECULE
*****
 35 38 0 0 0
SMALL
GASTEIGER

@<TRIPOS>ATOM
      1 C          60.1176   88.9440    8.3887 C.ar    1  UNL1        0.1391
      2 C          59.7676   87.5317    8.0241 C.ar    1  UNL1        0.0369
      3 C          60.3337   86.3905    8.8160 C.ar    1  UNL1        0.0031
      4 C          61.2497   86.6615    9.9724 C.ar    1  UNL1       -0.0001
      5 C          61.8157   85.5201   10.7643 C.ar    1  UNL1       -0.0024
      6 C          62.7317   85.7911   11.9208 C.ar    1  UNL1       -0.0004
      7 C          63.0817   87.2035   12.2854 C.ar    1  UNL1       -0.0024
      8 C          62.5157   88.3448   11.4936 C.ar    1  UNL1       -0.0002
      9 C          61.5996   88.0737   10.3371 C.ar    1  UNL1        0.0030
     10 C          61.0336   89.2150    9.5452 C.ar    1  UNL1        0.0369
     11 O          59.5515   90.0853    7.5968 O.3     1  UNL1       -0.4706
     12 C          59.1945   89.8921    6.1528 C.3     1  UNL1        0.2320
     13 C          60.8877   92.6519    3.0277 C.ar    1  UNL1        0.1394
     14 C          61.7770   91.6537    3.7079 C.ar    1  UNL1        0.0367
     15 C          61.2126   90.7338    4.7496 C.ar    1  UNL1        0.0024
     16 C          59.7590   90.8121    5.1111 C.ar    1  UNL1        0.0214
     17 C          58.8697   91.8103    4.4309 C.ar    1  UNL1        0.0024
     18 C          59.4341   92.7303    3.3892 C.ar    1  UNL1        0.0367
     19 O          61.4522   93.5719    1.9859 O.3     1  UNL1       -0.4638
     20 C          62.5688   93.1058    1.0995 C.3     1  UNL1        0.3141
     21 C          63.8508   93.8820    1.0374 C.2     1  UNL1        0.3621
     22 O          64.3696   94.5727    2.2637 O.2     1  UNL1       -0.2459
     23 C          64.2554   95.0105   -1.2676 C.3     1  UNL1        0.2557
     24 O          64.6142   93.9675   -0.2511 O.3     1  UNL1       -0.4418
     25 C          63.2978   84.6499   12.7127 C.3     1  UNL1        0.1240
     26 N          63.2250   83.2527   12.1718 N.ar    1  UNL1       -0.3045
     27 C          62.5330   82.0909   12.8209 C.ar    1  UNL1        0.0983
     28 C          62.7117   80.8922   11.9371 C.ar    1  UNL1        0.1193
     29 N          63.5141   81.3131   10.7417 N.ar    1  UNL1       -0.2223
     30 C          63.8313   82.7720   10.8868 C.ar    1  UNL1        0.1788
     31 C          63.9367   84.9058   14.0455 C.3     1  UNL1        0.0827
     32 C          65.4312   84.9519   14.1643 C.3     1  UNL1        0.0197
     33 N          63.0810   85.1156   15.2595 N.3     1  UNL1       -0.2696
     34 C          61.7769   84.3866   15.3929 C.3     1  UNL1        0.0897
     35 C          63.5295   86.0544   16.3401 C.3     1  UNL1        0.0897
@<TRIPOS>BOND
     1    23    24    1
     2    24    21    1
     3    21    22    2
     4    21    20    1
     5    20    19    1
     6    19    13    1
     7    13    14   ar
     8    14    15   ar
     9    15    16   ar
    10    16    12    1
    11    12    11    1
    12    11     1    1
    13     1     2   ar
    14     2     3   ar
    15     3     4   ar
    16     4     5   ar
    17     5     6   ar
    18     6    25    1
    19    25    31    1
    20    31    32    1
    21    31    33    1
    22    33    34    1
    23    33    35    1
    24    25    26    1
    25    26    27   ar
    26    27    28   ar
    27    28    29   ar
    28    29    30   ar
    29     6     7   ar
    30     7     8   ar
    31     8     9   ar
    32     9    10   ar
    33    16    17   ar
    34    17    18   ar
    35    18    13   ar
    36    10     1   ar
    37     9     4   ar
    38    30    26   ar
@<TRIPOS>MOLECULE
*****
 35 38 0 0 0
SMALL
GASTEIGER

@<TRIPOS>ATOM
      1 C          60.2759   87.4705    8.1168 C.ar    1  UNL1        0.1391
      2 C          59.7904   87.9931    9.4363 C.ar    1  UNL1        0.0369
      3 C          60.2873   87.3830   10.7133 C.ar    1  UNL1        0.0031
      4 C          61.2697   86.2503   10.6709 C.ar    1  UNL1       -0.0001
      5 C          61.7665   85.6402   11.9480 C.ar    1  UNL1       -0.0024
      6 C          62.7489   84.5075   11.9056 C.ar    1  UNL1       -0.0004
      7 C          63.2345   83.9848   10.5860 C.ar    1  UNL1       -0.0024
      8 C          62.7376   84.5949    9.3089 C.ar    1  UNL1       -0.0002
      9 C          61.7552   85.7277    9.3514 C.ar    1  UNL1        0.0030
     10 C          61.2583   86.3377    8.0744 C.ar    1  UNL1        0.0369
     11 O          59.7791   88.0806    6.8397 O.3     1  UNL1       -0.4706
     12 C          58.9771   89.3477    6.8761 C.3     1  UNL1        0.2320
     13 C          59.6136   92.5044    3.7329 C.ar    1  UNL1        0.1394
     14 C          60.7838   91.7367    4.2726 C.ar    1  UNL1        0.0367
     15 C          60.5717   90.6845    5.3203 C.ar    1  UNL1        0.0024
     16 C          59.1893   90.4000    5.8283 C.ar    1  UNL1        0.0214
     17 C          58.0192   91.1676    5.2886 C.ar    1  UNL1        0.0024
     18 C          58.2313   92.2199    4.2409 C.ar    1  UNL1        0.0367
     19 O          59.8259   93.5567    2.6851 O.3     1  UNL1       -0.4638
     20 C          60.2788   93.1651    1.3098 C.3     1  UNL1        0.3141
     21 C          61.4772   93.8280    0.6979 C.2     1  UNL1        0.3621
     22 O          61.4406   94.2677   -0.7358 O.2     1  UNL1       -0.2459
     23 C          63.4776   92.8783    2.0568 C.3     1  UNL1        0.2557
     24 O          62.7122   94.0511    1.5195 O.3     1  UNL1       -0.4418
     25 C          63.2458   83.8974   13.1826 C.3     1  UNL1        0.1240
     26 N          63.3160   84.7250   14.4316 N.ar    1  UNL1       -0.3045
     27 C          62.5537   84.4749   15.6990 C.ar    1  UNL1        0.0983
     28 C          62.9274   85.5434   16.6833 C.ar    1  UNL1        0.1193
     29 N          63.9207   86.4538   16.0242 N.ar    1  UNL1       -0.2223
     30 C          64.1609   85.9480   14.6326 C.ar    1  UNL1        0.1788
     31 C          63.6725   82.4595   13.2106 C.3     1  UNL1        0.0827
     32 C          65.1311   82.1098   13.2027 C.3     1  UNL1        0.0197
     33 N          62.6405   81.3715   13.2466 N.3     1  UNL1       -0.2696
     34 C          61.5480   81.4078   14.2736 C.3     1  UNL1        0.0897
     35 C          62.7012   80.2473   12.2554 C.3     1  UNL1        0.0897
@<TRIPOS>BOND
     1    23    24    1
     2    24    21    1
     3    21    22    2
     4    21    20    1
     5    20    19    1
     6    19    13    1
     7    13    14   ar
     8    14    15   ar
     9    15    16   ar
    10    16    12    1
    11    12    11    1
    12    11     1    1
    13     1     2   ar
    14     2     3   ar
    15     3     4   ar
    16     4     5   ar
    17     5     6   ar
    18     6    25    1
    19    25    31    1
    20    31    32    1
    21    31    33    1
    22    33    34    1
    23    33    35    1
    24    25    26    1
    25    26    27   ar
    26    27    28   ar
    27    28    29   ar
    28    29    30   ar
    29     6     7   ar
    30     7     8   ar
    31     8     9   ar
    32     9    10   ar
    33    16    17   ar
    34    17    18   ar
    35    18    13   ar
    36    10     1   ar
    37     9     4   ar
    38    30    26   ar
@<TRIPOS>MOLECULE
*****
 35 38 0 0 0
SMALL
GASTEIGER

@<TRIPOS>ATOM
      1 C          64.1038   90.5841   14.7726 C.ar    1  UNL1        0.1391
      2 C          64.2990   89.2069   15.3340 C.ar    1  UNL1        0.0369
      3 C          63.9766   88.0037   14.4983 C.ar    1  UNL1        0.0031
      4 C          63.4591   88.1777   13.1012 C.ar    1  UNL1       -0.0001
      5 C          63.1368   86.9745   12.2655 C.ar    1  UNL1       -0.0024
      6 C          62.6193   87.1485   10.8684 C.ar    1  UNL1       -0.0004
      7 C          62.4242   88.5258   10.3070 C.ar    1  UNL1       -0.0024
      8 C          62.7465   89.7289   11.1427 C.ar    1  UNL1       -0.0002
      9 C          63.2640   89.5549   12.5398 C.ar    1  UNL1        0.0030
     10 C          63.5863   90.7581   13.3755 C.ar    1  UNL1        0.0369
     11 O          64.4262   91.7874   15.6083 O.3     1  UNL1       -0.4706
     12 C          65.7769   92.4315   15.5061 C.3     1  UNL1        0.2320
     13 C          67.9290   92.5310   11.5553 C.ar    1  UNL1        0.1394
     14 C          66.6353   93.2713   11.7235 C.ar    1  UNL1        0.0367
     15 C          65.9179   93.2381   13.0404 C.ar    1  UNL1        0.0024
     16 C          66.4943   92.4647   14.1891 C.ar    1  UNL1        0.0214
     17 C          67.7880   91.7244   14.0209 C.ar    1  UNL1        0.0024
     18 C          68.5054   91.7576   12.7040 C.ar    1  UNL1        0.0367
     19 O          68.6464   92.5642   10.2383 O.3     1  UNL1       -0.4638
     20 C          67.9246   93.0123    9.0022 C.3     1  UNL1        0.3141
     21 C          67.6735   94.4725    8.7681 C.2     1  UNL1        0.3621
     22 O          67.0631   94.9310    7.4769 O.2     1  UNL1       -0.2459
     23 C          67.0949   96.6018   10.1397 C.3     1  UNL1        0.2557
     24 O          68.0327   95.4742    9.8252 O.3     1  UNL1       -0.4418
     25 C          62.2970   85.9453   10.0327 C.3     1  UNL1        0.1240
     26 N          62.8878   84.6110   10.3797 N.ar    1  UNL1       -0.3045
     27 C          62.5385   83.7762   11.5760 C.ar    1  UNL1        0.0983
     28 C          63.3665   82.5264   11.5270 C.ar    1  UNL1        0.1193
     29 N          64.2276   82.5888   10.3003 N.ar    1  UNL1       -0.2223
     30 C          63.9318   83.8771    9.5913 C.ar    1  UNL1        0.1788
     31 C          61.3837   86.0765    8.8499 C.3     1  UNL1        0.0827
     32 C          61.7852   85.4998    7.5248 C.3     1  UNL1        0.0197
     33 N          60.0689   86.7843    8.9924 N.3     1  UNL1       -0.2696
     34 C          59.7413   87.5091   10.2642 C.3     1  UNL1        0.0897
     35 C          59.0817   86.7674    7.8631 C.3     1  UNL1        0.0897
@<TRIPOS>BOND
     1    23    24    1
     2    24    21    1
     3    21    22    2
     4    21    20    1
     5    20    19    1
     6    19    13    1
     7    13    14   ar
     8    14    15   ar
     9    15    16   ar
    10    16    12    1
    11    12    11    1
    12    11     1    1
    13     1     2   ar
    14     2     3   ar
    15     3     4   ar
    16     4     5   ar
    17     5     6   ar
    18     6    25    1
    19    25    31    1
    20    31    32    1
    21    31    33    1
    22    33    34    1
    23    33    35    1
    24    25    26    1
    25    26    27   ar
    26    27    28   ar
    27    28    29   ar
    28    29    30   ar
    29     6     7   ar
    30     7     8   ar
    31     8     9   ar
    32     9    10   ar
    33    16    17   ar
    34    17    18   ar
    35    18    13   ar
    36    10     1   ar
    37     9     4   ar
    38    30    26   ar
