@<TRIPOS>MOLECULE
*****
 40 42 0 0 0
SMALL
GASTEIGER

@<TRIPOS>ATOM
      1 C          63.5581   87.1804   16.0645 C.3     1  UNL1        0.2120
      2 O          64.0154   87.0635   14.6406 O.3     1  UNL1       -0.3763
      3 H          63.9644   87.9324   14.2123 H       1  UNL1        0.2107
      4 C          63.1009   87.2972   17.4883 C.3     1  UNL1        0.4226
      5 F          62.6437   87.4140   18.9121 F       1  UNL1       -0.1675
      6 F          63.4268   88.7613   17.4727 F       1  UNL1       -0.1675
      7 F          62.7750   85.8331   17.5038 F       1  UNL1       -0.1675
      8 C          63.8033   85.7141   16.2635 C.3     1  UNL1        0.1308
      9 C          65.3301   84.5065   14.5428 C.3     1  UNL1        0.1153
     10 N          63.9615   84.8120   15.0755 N.am    1  UNL1       -0.2714
     11 C          62.7512   84.2156   14.4202 C.2     1  UNL1        0.2535
     12 O          61.3827   84.5211   14.9529 O.2     1  UNL1       -0.2697
     13 C          62.9095   83.3136   13.2322 C.ar    1  UNL1        0.1083
     14 C          62.6643   81.8403   13.3712 C.ar    1  UNL1        0.1467
     15 F          62.2609   81.2691   14.6982 F       1  UNL1       -0.2039
     16 C          62.8226   80.9383   12.1832 C.ar    1  UNL1        0.0299
     17 C          63.2261   81.5095   10.8561 C.ar    1  UNL1        0.0046
     18 C          63.4712   82.9829   10.7172 C.ar    1  UNL1        0.0299
     19 C          63.3130   83.8849   11.9052 C.ar    1  UNL1        0.1467
     20 F          63.5582   85.3581   11.7662 F       1  UNL1       -0.2039
     21 C          63.3129   88.6468   15.8654 C.3     1  UNL1        0.1269
     22 N          63.5148   89.2642   14.5134 N.am    1  UNL1       -0.2982
     23 C          64.0675   90.6539   14.3984 C.2     1  UNL1        0.2502
     24 O          64.4182   91.4263   15.6355 O.2     1  UNL1       -0.2700
     25 H          63.2846   88.7573   13.7014 H       1  UNL1        0.1498
     26 C          64.2694   91.2713   13.0464 C.ar    1  UNL1        0.1053
     27 C          63.5435   90.8962   11.7885 C.ar    1  UNL1        0.1278
     28 N          64.0581   91.7653   10.6795 N.ar    1  UNL1       -0.1622
     29 N          65.1021   92.6776   11.2520 N.ar    1  UNL1       -0.2163
     30 C          65.2326   92.3723   12.7148 C.ar    1  UNL1        0.1327
     31 N          66.1631   93.0492   13.6771 N.pl3   1  UNL1       -0.3424
     32 H          66.7610   93.7653   13.3626 H       1  UNL1        0.1437
     33 H          66.1760   92.7773   14.6233 H       1  UNL1        0.1437
     34 C          65.8791   93.7134   10.4947 C.ar    1  UNL1        0.0843
     35 C          67.1206   93.3230    9.7490 C.ar    1  UNL1        0.0215
     36 C          67.8975   94.3587    8.9917 C.ar    1  UNL1        0.0312
     37 C          67.4330   95.7849    8.9802 C.ar    1  UNL1        0.1402
     38 F          68.2100   96.8207    8.2229 F       1  UNL1       -0.2042
     39 C          66.1915   96.1754    9.7259 C.ar    1  UNL1        0.0312
     40 C          65.4145   95.1396   10.4832 C.ar    1  UNL1        0.0215
@<TRIPOS>BOND
     1     9    10    1
     2    10     8    1
     3     8     1    1
     4     1     2    1
     5     1    21    1
     6    21    22    1
     7    22    23   am
     8    23    24    2
     9    23    26    1
    10    26    27   ar
    11    27    28   ar
    12    28    29   ar
    13    29    34    1
    14    34    35   ar
    15    35    36   ar
    16    36    37   ar
    17    37    38    1
    18    37    39   ar
    19    39    40   ar
    20    29    30   ar
    21    30    31    1
    22     1     4    1
    23     4     5    1
    24     4     6    1
    25     4     7    1
    26    10    11   am
    27    11    12    2
    28    11    13    1
    29    13    14   ar
    30    14    15    1
    31    14    16   ar
    32    16    17   ar
    33    17    18   ar
    34    18    19   ar
    35    19    20    1
    36    30    26   ar
    37    19    13   ar
    38    40    34   ar
    39     2     3    1
    40    22    25    1
    41    31    32    1
    42    31    33    1
@<TRIPOS>MOLECULE
*****
 40 42 0 0 0
SMALL
GASTEIGER

@<TRIPOS>ATOM
      1 C          63.4982   87.1047   16.2203 C.3     1  UNL1        0.2120
      2 O          64.0439   87.1254   14.8232 O.3     1  UNL1       -0.3763
      3 H          63.9904   88.0267   14.4686 H       1  UNL1        0.2107
      4 C          62.9526   87.0839   17.6175 C.3     1  UNL1        0.4226
      5 F          62.4070   87.0631   19.0145 F       1  UNL1       -0.1675
      6 F          63.2993   88.5348   17.7743 F       1  UNL1       -0.1675
      7 F          62.6059   85.6330   17.4605 F       1  UNL1       -0.1675
      8 C          63.7789   85.6338   16.3081 C.3     1  UNL1        0.1308
      9 C          65.3424   84.5728   14.5249 C.3     1  UNL1        0.1153
     10 N          63.9630   84.8294   15.0554 N.am    1  UNL1       -0.2714
     11 C          62.7678   84.2816   14.3334 C.2     1  UNL1        0.2535
     12 O          61.3884   84.5382   14.8639 O.2     1  UNL1       -0.2697
     13 C          62.9520   83.4772   13.0808 C.ar    1  UNL1        0.1083
     14 C          63.2474   84.1680   11.7825 C.ar    1  UNL1        0.1467
     15 F          63.3586   85.6632   11.7369 F       1  UNL1       -0.2039
     16 C          63.4316   83.3636   10.5299 C.ar    1  UNL1        0.0299
     17 C          63.3204   81.8684   10.5755 C.ar    1  UNL1        0.0046
     18 C          63.0250   81.1776   11.8739 C.ar    1  UNL1        0.0299
     19 C          62.8408   81.9820   13.1265 C.ar    1  UNL1        0.1467
     20 F          62.5455   81.2912   14.4247 F       1  UNL1       -0.2039
     21 C          63.2176   88.5756   16.1326 C.3     1  UNL1        0.1269
     22 N          64.1392   89.4700   15.3577 N.am    1  UNL1       -0.2982
     23 C          64.2249   90.9297   15.6926 C.2     1  UNL1        0.2502
     24 O          63.3889   91.4949   16.8024 O.2     1  UNL1       -0.2700
     25 H          64.6880   89.0991   14.6293 H       1  UNL1        0.1498
     26 C          65.1465   91.8241   14.9177 C.ar    1  UNL1        0.1053
     27 C          66.2410   92.6734   15.4930 C.ar    1  UNL1        0.1278
     28 N          66.9064   93.4005   14.3623 N.ar    1  UNL1       -0.1622
     29 N          66.2233   93.0007   13.0882 N.ar    1  UNL1       -0.2163
     30 C          65.1356   92.0265   13.4315 C.ar    1  UNL1        0.1327
     31 N          64.2010   91.3698   12.4592 N.pl3   1  UNL1       -0.3424
     32 H          64.2725   91.5676   11.4974 H       1  UNL1        0.1437
     33 H          63.5161   90.7410   12.7828 H       1  UNL1        0.1437
     34 C          66.5673   93.4894   11.7124 C.ar    1  UNL1        0.0843
     35 C          66.1549   94.8652   11.2802 C.ar    1  UNL1        0.0215
     36 C          66.4990   95.3538    9.9044 C.ar    1  UNL1        0.0312
     37 C          67.2554   94.4665    8.9608 C.ar    1  UNL1        0.1402
     38 F          67.5995   94.9551    7.5849 F       1  UNL1       -0.2042
     39 C          67.6678   93.0906    9.3929 C.ar    1  UNL1        0.0312
     40 C          67.3238   92.6020   10.7687 C.ar    1  UNL1        0.0215
@<TRIPOS>BOND
     1     9    10    1
     2    10     8    1
     3     8     1    1
     4     1     2    1
     5     1    21    1
     6    21    22    1
     7    22    23   am
     8    23    24    2
     9    23    26    1
    10    26    27   ar
    11    27    28   ar
    12    28    29   ar
    13    29    34    1
    14    34    35   ar
    15    35    36   ar
    16    36    37   ar
    17    37    38    1
    18    37    39   ar
    19    39    40   ar
    20    29    30   ar
    21    30    31    1
    22     1     4    1
    23     4     5    1
    24     4     6    1
    25     4     7    1
    26    10    11   am
    27    11    12    2
    28    11    13    1
    29    13    14   ar
    30    14    15    1
    31    14    16   ar
    32    16    17   ar
    33    17    18   ar
    34    18    19   ar
    35    19    20    1
    36    30    26   ar
    37    19    13   ar
    38    40    34   ar
    39     2     3    1
    40    22    25    1
    41    31    32    1
    42    31    33    1
@<TRIPOS>MOLECULE
*****
 40 42 0 0 0
SMALL
GASTEIGER

@<TRIPOS>ATOM
      1 C          61.3369   87.2668    9.2158 C.3     1  UNL1        0.2120
      2 O          62.7482   87.4746    9.6796 O.3     1  UNL1       -0.3763
      3 H          62.8924   88.4158    9.8648 H       1  UNL1        0.2107
      4 C          59.9256   87.0590    8.7520 C.3     1  UNL1        0.4226
      5 F          58.5144   86.8512    8.2882 F       1  UNL1       -0.1675
      6 F          60.4241   86.2260    7.6085 F       1  UNL1       -0.1675
      7 F          59.4272   87.8920    9.8955 F       1  UNL1       -0.1675
      8 C          61.5993   85.7967    9.0759 C.3     1  UNL1        0.1308
      9 C          63.4916   84.1321    9.7074 C.3     1  UNL1        0.1153
     10 N          62.4002   85.0752   10.1191 N.am    1  UNL1       -0.2714
     11 C          62.1096   85.2967   11.5739 C.2     1  UNL1        0.2535
     12 O          61.0181   86.2397   11.9856 O.2     1  UNL1       -0.2697
     13 C          62.9104   84.5752   12.6170 C.ar    1  UNL1        0.1083
     14 C          63.8133   85.3450   13.5347 C.ar    1  UNL1        0.1467
     15 F          63.9154   86.8363   13.4092 F       1  UNL1       -0.2039
     16 C          64.6142   84.6235   14.5778 C.ar    1  UNL1        0.0299
     17 C          64.5122   83.1323   14.7033 C.ar    1  UNL1        0.0046
     18 C          63.6092   82.3625   13.7856 C.ar    1  UNL1        0.0299
     19 C          62.8083   83.0840   12.7425 C.ar    1  UNL1        0.1467
     20 F          61.9054   82.3142   11.8248 F       1  UNL1       -0.2039
     21 C          61.0745   88.7370    9.3557 C.3     1  UNL1        0.1269
     22 N          62.1920   89.6665    9.7262 N.am    1  UNL1       -0.2982
     23 C          62.4768   89.9589   11.1696 C.2     1  UNL1        0.2502
     24 O          61.6442   89.3220   12.2424 O.2     1  UNL1       -0.2700
     25 H          62.7385   90.0845    9.0220 H       1  UNL1        0.1498
     26 C          63.5944   90.8884   11.5401 C.ar    1  UNL1        0.1053
     27 C          64.0562   92.0733   10.7446 C.ar    1  UNL1        0.1278
     28 N          65.1935   92.7133   11.4840 N.ar    1  UNL1       -0.1622
     29 N          65.4347   91.9240   12.7365 N.ar    1  UNL1       -0.2163
     30 C          64.4464   90.7961   12.7712 C.ar    1  UNL1        0.1327
     31 N          64.3304   89.7582   13.8479 N.pl3   1  UNL1       -0.3424
     32 H          64.9388   89.7814   14.6215 H       1  UNL1        0.1437
     33 H          63.6458   89.0538   13.7809 H       1  UNL1        0.1437
     34 C          66.4806   92.2119   13.7726 C.ar    1  UNL1        0.0843
     35 C          67.9309   92.0016   13.4528 C.ar    1  UNL1        0.0215
     36 C          68.9767   92.2896   14.4888 C.ar    1  UNL1        0.0312
     37 C          68.5721   92.7878   15.8446 C.ar    1  UNL1        0.1402
     38 F          69.6180   93.0758   16.8806 F       1  UNL1       -0.2042
     39 C          67.1218   92.9982   16.1643 C.ar    1  UNL1        0.0312
     40 C          66.0760   92.7102   15.1283 C.ar    1  UNL1        0.0215
@<TRIPOS>BOND
     1     9    10    1
     2    10     8    1
     3     8     1    1
     4     1     2    1
     5     1    21    1
     6    21    22    1
     7    22    23   am
     8    23    24    2
     9    23    26    1
    10    26    27   ar
    11    27    28   ar
    12    28    29   ar
    13    29    34    1
    14    34    35   ar
    15    35    36   ar
    16    36    37   ar
    17    37    38    1
    18    37    39   ar
    19    39    40   ar
    20    29    30   ar
    21    30    31    1
    22     1     4    1
    23     4     5    1
    24     4     6    1
    25     4     7    1
    26    10    11   am
    27    11    12    2
    28    11    13    1
    29    13    14   ar
    30    14    15    1
    31    14    16   ar
    32    16    17   ar
    33    17    18   ar
    34    18    19   ar
    35    19    20    1
    36    30    26   ar
    37    19    13   ar
    38    40    34   ar
    39     2     3    1
    40    22    25    1
    41    31    32    1
    42    31    33    1
@<TRIPOS>MOLECULE
*****
 40 42 0 0 0
SMALL
GASTEIGER

@<TRIPOS>ATOM
      1 C          65.7052   92.3101   13.7948 C.3     1  UNL1        0.2120
      2 O          64.7131   92.6108   12.7107 O.3     1  UNL1       -0.3763
      3 H          63.9128   92.0802   12.8485 H       1  UNL1        0.2107
      4 C          66.6974   92.0093   14.8789 C.3     1  UNL1        0.4226
      5 F          67.6894   91.7086   15.9629 F       1  UNL1       -0.1675
      6 F          67.6786   91.5338   13.8488 F       1  UNL1       -0.1675
      7 F          65.7161   92.4849   15.9089 F       1  UNL1       -0.1675
      8 C          66.6670   93.2865   13.1855 C.3     1  UNL1        0.1308
      9 C          66.4372   92.6912   10.6669 C.3     1  UNL1        0.1153
     10 N          66.4951   93.7178   11.7591 N.am    1  UNL1       -0.2714
     11 C          66.3811   95.1756   11.4248 C.2     1  UNL1        0.2535
     12 O          66.4389   96.2023   12.5170 O.2     1  UNL1       -0.2697
     13 C          66.2092   95.6068    9.9985 C.ar    1  UNL1        0.1083
     14 C          67.2302   95.2203    8.9699 C.ar    1  UNL1        0.1467
     15 F          68.4232   94.4026    9.3677 F       1  UNL1       -0.2039
     16 C          67.0583   95.6515    7.5435 C.ar    1  UNL1        0.0299
     17 C          65.8654   96.4692    7.1457 C.ar    1  UNL1        0.0046
     18 C          64.8443   96.8558    8.1743 C.ar    1  UNL1        0.0299
     19 C          65.0162   96.4246    9.6007 C.ar    1  UNL1        0.1467
     20 F          63.9951   96.8111   10.6293 F       1  UNL1       -0.2039
     21 C          64.7434   91.3335   14.4042 C.3     1  UNL1        0.1269
     22 N          64.9721   89.8593   14.2488 N.am    1  UNL1       -0.2982
     23 C          63.8475   88.8963   14.4895 C.2     1  UNL1        0.2502
     24 O          62.4941   89.4076   14.8855 O.2     1  UNL1       -0.2700
     25 H          65.8604   89.5236   13.9889 H       1  UNL1        0.1498
     26 C          64.0762   87.4220   14.3342 C.ar    1  UNL1        0.1053
     27 C          64.8520   86.5464   15.2731 C.ar    1  UNL1        0.1278
     28 N          64.8246   85.1477   14.7319 N.ar    1  UNL1       -0.1622
     29 N          64.0319   85.1589   13.4585 N.ar    1  UNL1       -0.2163
     30 C          63.5694   86.5645   13.2127 C.ar    1  UNL1        0.1327
     31 N          62.7448   87.0307   12.0497 N.pl3   1  UNL1       -0.3424
     32 H          62.4586   86.3886   11.3604 H       1  UNL1        0.1437
     33 H          62.4898   87.9787   11.9756 H       1  UNL1        0.1437
     34 C          63.7510   83.9727   12.5843 C.ar    1  UNL1        0.0843
     35 C          64.3749   83.8794   11.2234 C.ar    1  UNL1        0.0215
     36 C          64.0939   82.6933   10.3493 C.ar    1  UNL1        0.0312
     37 C          63.1892   81.6004   10.8361 C.ar    1  UNL1        0.1402
     38 F          62.9083   80.4142    9.9620 F       1  UNL1       -0.2042
     39 C          62.5654   81.6936   12.1970 C.ar    1  UNL1        0.0312
     40 C          62.8463   82.8797   13.0711 C.ar    1  UNL1        0.0215
@<TRIPOS>BOND
     1     9    10    1
     2    10     8    1
     3     8     1    1
     4     1     2    1
     5     1    21    1
     6    21    22    1
     7    22    23   am
     8    23    24    2
     9    23    26    1
    10    26    27   ar
    11    27    28   ar
    12    28    29   ar
    13    29    34    1
    14    34    35   ar
    15    35    36   ar
    16    36    37   ar
    17    37    38    1
    18    37    39   ar
    19    39    40   ar
    20    29    30   ar
    21    30    31    1
    22     1     4    1
    23     4     5    1
    24     4     6    1
    25     4     7    1
    26    10    11   am
    27    11    12    2
    28    11    13    1
    29    13    14   ar
    30    14    15    1
    31    14    16   ar
    32    16    17   ar
    33    17    18   ar
    34    18    19   ar
    35    19    20    1
    36    30    26   ar
    37    19    13   ar
    38    40    34   ar
    39     2     3    1
    40    22    25    1
    41    31    32    1
    42    31    33    1
@<TRIPOS>MOLECULE
*****
 40 42 0 0 0
SMALL
GASTEIGER

@<TRIPOS>ATOM
      1 C          63.9062   90.8214   14.5039 C.3     1  UNL1        0.2120
      2 O          62.7608   90.2697   13.7079 O.3     1  UNL1       -0.3763
      3 H          62.5384   89.3833   14.0330 H       1  UNL1        0.2107
      4 C          65.0517   91.3731   15.3000 C.3     1  UNL1        0.4226
      5 F          66.1970   91.9248   16.0960 F       1  UNL1       -0.1675
      6 F          66.0201   90.7112   14.3651 F       1  UNL1       -0.1675
      7 F          64.0831   92.0350   16.2349 F       1  UNL1       -0.1675
      8 C          63.8662   92.0802   13.6893 C.3     1  UNL1        0.1308
      9 C          64.3437   91.3433   11.2440 C.3     1  UNL1        0.1153
     10 N          64.6830   92.1886   12.4358 N.am    1  UNL1       -0.2714
     11 C          65.8391   93.1424   12.3741 C.2     1  UNL1        0.2535
     12 O          66.1783   93.9878   13.5659 O.2     1  UNL1       -0.2697
     13 C          66.6558   93.2508   11.1207 C.ar    1  UNL1        0.1083
     14 C          67.8227   92.3335   10.9042 C.ar    1  UNL1        0.1467
     15 F          68.1728   91.3077   11.9412 F       1  UNL1       -0.2039
     16 C          68.6395   92.4419    9.6508 C.ar    1  UNL1        0.0299
     17 C          68.2894   93.4676    8.6137 C.ar    1  UNL1        0.0046
     18 C          67.1225   94.3850    8.8303 C.ar    1  UNL1        0.0299
     19 C          66.3057   94.2766   10.0837 C.ar    1  UNL1        0.1467
     20 F          65.1389   95.1939   10.3002 F       1  UNL1       -0.2039
     21 C          63.9463   89.5626   15.3187 C.3     1  UNL1        0.1269
     22 N          64.3585   88.2691   14.6807 N.am    1  UNL1       -0.2982
     23 C          63.9505   86.9646   15.2986 C.2     1  UNL1        0.2502
     24 O          63.1303   86.9535   16.5544 O.2     1  UNL1       -0.2700
     25 H          64.8968   88.2764   13.8564 H       1  UNL1        0.1498
     26 C          64.3626   85.6711   14.6606 C.ar    1  UNL1        0.1053
     27 C          65.6458   84.9350   14.9089 C.ar    1  UNL1        0.1278
     28 N          65.6402   83.6956   14.0640 N.ar    1  UNL1       -0.1622
     29 N          64.3536   83.6657   13.2935 N.ar    1  UNL1       -0.2163
     30 C          63.5640   84.8866   13.6622 C.ar    1  UNL1        0.1327
     31 N          62.2130   85.2579   13.1266 N.pl3   1  UNL1       -0.3424
     32 H          61.7664   84.6752   12.4705 H       1  UNL1        0.1437
     33 H          61.7728   86.0842   13.4310 H       1  UNL1        0.1437
     34 C          63.9307   82.6016   12.3244 C.ar    1  UNL1        0.0843
     35 C          64.2469   82.7475   10.8654 C.ar    1  UNL1        0.0215
     36 C          63.8240   81.6834    9.8965 C.ar    1  UNL1        0.0312
     37 C          63.0850   80.4736   10.3865 C.ar    1  UNL1        0.1402
     38 F          62.6621   79.4095    9.4174 F       1  UNL1       -0.2042
     39 C          62.7688   80.3277   11.8455 C.ar    1  UNL1        0.0312
     40 C          63.1917   81.3918   12.8145 C.ar    1  UNL1        0.0215
@<TRIPOS>BOND
     1     9    10    1
     2    10     8    1
     3     8     1    1
     4     1     2    1
     5     1    21    1
     6    21    22    1
     7    22    23   am
     8    23    24    2
     9    23    26    1
    10    26    27   ar
    11    27    28   ar
    12    28    29   ar
    13    29    34    1
    14    34    35   ar
    15    35    36   ar
    16    36    37   ar
    17    37    38    1
    18    37    39   ar
    19    39    40   ar
    20    29    30   ar
    21    30    31    1
    22     1     4    1
    23     4     5    1
    24     4     6    1
    25     4     7    1
    26    10    11   am
    27    11    12    2
    28    11    13    1
    29    13    14   ar
    30    14    15    1
    31    14    16   ar
    32    16    17   ar
    33    17    18   ar
    34    18    19   ar
    35    19    20    1
    36    30    26   ar
    37    19    13   ar
    38    40    34   ar
    39     2     3    1
    40    22    25    1
    41    31    32    1
    42    31    33    1
@<TRIPOS>MOLECULE
*****
 40 42 0 0 0
SMALL
GASTEIGER

@<TRIPOS>ATOM
      1 C          64.4771   90.8744   14.0256 C.3     1  UNL1        0.2120
      2 O          63.2118   90.6316   13.2575 O.3     1  UNL1       -0.3763
      3 H          62.9468   89.7036   13.3559 H       1  UNL1        0.2107
      4 C          65.7425   91.1172   14.7937 C.3     1  UNL1        0.4226
      5 F          67.0078   91.3600   15.5617 F       1  UNL1       -0.1675
      6 F          64.9376   91.4392   16.0177 F       1  UNL1       -0.1675
      7 F          66.5474   90.7951   13.5695 F       1  UNL1       -0.1675
      8 C          64.4643   92.3104   13.5927 C.3     1  UNL1        0.1308
      9 C          64.5459   91.9720   11.0180 C.3     1  UNL1        0.1153
     10 N          65.0094   92.6935   12.2488 N.am    1  UNL1       -0.2714
     11 C          66.0179   93.7981   12.1355 C.2     1  UNL1        0.2535
     12 O          66.4814   94.5196   13.3663 O.2     1  UNL1       -0.2697
     13 C          66.5629   94.1812   10.7916 C.ar    1  UNL1        0.1083
     14 C          67.4784   93.2456   10.0592 C.ar    1  UNL1        0.1467
     15 F          67.8489   91.9269   10.6707 F       1  UNL1       -0.2039
     16 C          68.0235   93.6286    8.7152 C.ar    1  UNL1        0.0299
     17 C          67.6530   94.9473    8.1036 C.ar    1  UNL1        0.0046
     18 C          66.7375   95.8829    8.8361 C.ar    1  UNL1        0.0299
     19 C          66.1925   95.4998   10.1801 C.ar    1  UNL1        0.1467
     20 F          65.2769   96.4354   10.9125 F       1  UNL1       -0.2039
     21 C          64.4900   89.4382   14.4585 C.3     1  UNL1        0.1269
     22 N          63.8761   88.3857   13.5836 N.am    1  UNL1       -0.2982
     23 C          64.0877   86.9339   13.8959 C.2     1  UNL1        0.2502
     24 O          64.9131   86.5346   15.0830 O.2     1  UNL1       -0.2700
     25 H          63.3344   88.6477   12.8045 H       1  UNL1        0.1498
     26 C          63.4739   85.8813   13.0211 C.ar    1  UNL1        0.1053
     27 C          62.4851   86.1181   11.9182 C.ar    1  UNL1        0.1278
     28 N          62.1411   84.7904   11.3110 N.ar    1  UNL1       -0.1622
     29 N          62.9173   83.7329   12.0386 N.ar    1  UNL1       -0.2163
     30 C          63.7409   84.4072   13.0955 C.ar    1  UNL1        0.1327
     31 N          64.6688   83.7268   14.0578 N.pl3   1  UNL1       -0.3424
     32 H          64.7778   82.7488   14.0285 H       1  UNL1        0.1437
     33 H          65.1688   84.2582   14.7188 H       1  UNL1        0.1437
     34 C          62.8769   82.2598   11.7585 C.ar    1  UNL1        0.0843
     35 C          62.4692   81.3020   12.8384 C.ar    1  UNL1        0.0215
     36 C          62.4288   79.8289   12.5583 C.ar    1  UNL1        0.0312
     37 C          62.7962   79.3138   11.1983 C.ar    1  UNL1        0.1402
     38 F          62.7558   77.8406   10.9183 F       1  UNL1       -0.2042
     39 C          63.2039   80.2716   10.1184 C.ar    1  UNL1        0.0312
     40 C          63.2443   81.7446   10.3985 C.ar    1  UNL1        0.0215
@<TRIPOS>BOND
     1     9    10    1
     2    10     8    1
     3     8     1    1
     4     1     2    1
     5     1    21    1
     6    21    22    1
     7    22    23   am
     8    23    24    2
     9    23    26    1
    10    26    27   ar
    11    27    28   ar
    12    28    29   ar
    13    29    34    1
    14    34    35   ar
    15    35    36   ar
    16    36    37   ar
    17    37    38    1
    18    37    39   ar
    19    39    40   ar
    20    29    30   ar
    21    30    31    1
    22     1     4    1
    23     4     5    1
    24     4     6    1
    25     4     7    1
    26    10    11   am
    27    11    12    2
    28    11    13    1
    29    13    14   ar
    30    14    15    1
    31    14    16   ar
    32    16    17   ar
    33    17    18   ar
    34    18    19   ar
    35    19    20    1
    36    30    26   ar
    37    19    13   ar
    38    40    34   ar
    39     2     3    1
    40    22    25    1
    41    31    32    1
    42    31    33    1
@<TRIPOS>MOLECULE
*****
 40 42 0 0 0
SMALL
GASTEIGER

@<TRIPOS>ATOM
      1 C          63.8434   83.4814   14.5449 C.3     1  UNL1        0.2120
      2 O          65.2144   84.0528   14.3357 O.3     1  UNL1       -0.3763
      3 H          65.4001   84.7087   15.0258 H       1  UNL1        0.2107
      4 C          62.4724   82.9099   14.7541 C.3     1  UNL1        0.4226
      5 F          61.1014   82.3385   14.9633 F       1  UNL1       -0.1675
      6 F          63.0541   81.5278   14.7907 F       1  UNL1       -0.1675
      7 F          61.8907   84.2921   14.7175 F       1  UNL1       -0.1675
      8 C          64.0235   82.6076   13.3391 C.3     1  UNL1        0.1308
      9 C          63.0265   81.9800   11.0234 C.3     1  UNL1        0.1153
     10 N          63.4427   83.0216   12.0195 N.am    1  UNL1       -0.2714
     11 C          63.2781   84.4769   11.6959 C.2     1  UNL1        0.2535
     12 O          63.6942   85.5185   12.6919 O.2     1  UNL1       -0.2697
     13 C          62.6972   84.8908   10.3763 C.ar    1  UNL1        0.1083
     14 C          63.3311   84.4256    9.0989 C.ar    1  UNL1        0.1467
     15 F          64.5458   83.5465    9.1411 F       1  UNL1       -0.2039
     16 C          62.7503   84.8394    7.7793 C.ar    1  UNL1        0.0299
     17 C          61.5356   85.7185    7.7370 C.ar    1  UNL1        0.0046
     18 C          60.9017   86.1837    9.0144 C.ar    1  UNL1        0.0299
     19 C          61.4826   85.7699   10.3341 C.ar    1  UNL1        0.1467
     20 F          60.8487   86.2351   11.6114 F       1  UNL1       -0.2039
     21 C          63.6633   84.3551   15.7508 C.3     1  UNL1        0.1269
     22 N          63.9893   85.8172   15.6730 N.am    1  UNL1       -0.2982
     23 C          63.0554   86.8268   16.2718 C.2     1  UNL1        0.2502
     24 O          61.7953   86.3744   16.9482 O.2     1  UNL1       -0.2700
     25 H          64.8163   86.1141   15.2291 H       1  UNL1        0.1498
     26 C          63.3814   88.2888   16.1940 C.ar    1  UNL1        0.1053
     27 C          63.0568   89.3211   17.2328 C.ar    1  UNL1        0.1278
     28 N          63.5641   90.6456   16.7447 N.ar    1  UNL1       -0.1622
     29 N          64.2024   90.4319   15.4042 N.ar    1  UNL1       -0.2163
     30 C          64.0895   88.9754   15.0638 C.ar    1  UNL1        0.1327
     31 N          64.5957   88.3204   13.8130 N.pl3   1  UNL1       -0.3424
     32 H          65.0502   88.8583   13.1250 H       1  UNL1        0.1437
     33 H          64.4735   87.3527   13.6800 H       1  UNL1        0.1437
     34 C          64.8413   91.4892   14.5533 C.ar    1  UNL1        0.0843
     35 C          65.8148   92.4547   15.1618 C.ar    1  UNL1        0.0215
     36 C          66.4537   93.5119   14.3109 C.ar    1  UNL1        0.0312
     37 C          66.1192   93.6037   12.8515 C.ar    1  UNL1        0.1402
     38 F          66.7582   94.6609   12.0007 F       1  UNL1       -0.2042
     39 C          65.1458   92.6382   12.2431 C.ar    1  UNL1        0.0312
     40 C          64.5069   91.5810   13.0939 C.ar    1  UNL1        0.0215
@<TRIPOS>BOND
     1     9    10    1
     2    10     8    1
     3     8     1    1
     4     1     2    1
     5     1    21    1
     6    21    22    1
     7    22    23   am
     8    23    24    2
     9    23    26    1
    10    26    27   ar
    11    27    28   ar
    12    28    29   ar
    13    29    34    1
    14    34    35   ar
    15    35    36   ar
    16    36    37   ar
    17    37    38    1
    18    37    39   ar
    19    39    40   ar
    20    29    30   ar
    21    30    31    1
    22     1     4    1
    23     4     5    1
    24     4     6    1
    25     4     7    1
    26    10    11   am
    27    11    12    2
    28    11    13    1
    29    13    14   ar
    30    14    15    1
    31    14    16   ar
    32    16    17   ar
    33    17    18   ar
    34    18    19   ar
    35    19    20    1
    36    30    26   ar
    37    19    13   ar
    38    40    34   ar
    39     2     3    1
    40    22    25    1
    41    31    32    1
    42    31    33    1
@<TRIPOS>MOLECULE
*****
 40 42 0 0 0
SMALL
GASTEIGER

@<TRIPOS>ATOM
      1 C          64.5475   90.9496   14.2425 C.3     1  UNL1        0.2120
      2 O          63.2823   90.6961   13.4776 O.3     1  UNL1       -0.3763
      3 H          63.0525   89.7554   13.5353 H       1  UNL1        0.2107
      4 C          65.8127   91.2031   15.0074 C.3     1  UNL1        0.4226
      5 F          67.0778   91.4566   15.7722 F       1  UNL1       -0.1675
      6 F          65.0287   91.9200   16.0664 F       1  UNL1       -0.1675
      7 F          66.5966   90.4862   13.9483 F       1  UNL1       -0.1675
      8 C          64.4770   92.4027   13.8775 C.3     1  UNL1        0.1308
      9 C          66.5810   93.8539   13.4108 C.3     1  UNL1        0.1153
     10 N          65.4672   92.9821   12.9111 N.am    1  UNL1       -0.2714
     11 C          65.3437   92.6898   11.4450 C.2     1  UNL1        0.2535
     12 O          64.2300   91.8181   10.9453 O.2     1  UNL1       -0.2697
     13 C          66.3339   93.2692   10.4787 C.ar    1  UNL1        0.1083
     14 C          66.0744   94.6063    9.8504 C.ar    1  UNL1        0.1467
     15 F          64.8247   95.3640   10.1883 F       1  UNL1       -0.2039
     16 C          67.0647   95.1857    8.8841 C.ar    1  UNL1        0.0299
     17 C          68.3144   94.4281    8.5461 C.ar    1  UNL1        0.0046
     18 C          68.5739   93.0910    9.1745 C.ar    1  UNL1        0.0299
     19 C          67.5837   92.5116   10.1408 C.ar    1  UNL1        0.1467
     20 F          67.8432   91.1745   10.7692 F       1  UNL1       -0.2039
     21 C          64.6180   89.4964   14.6076 C.3     1  UNL1        0.1269
     22 N          64.0408   88.4628   13.6864 N.am    1  UNL1       -0.2982
     23 C          64.0929   87.0113   14.0612 C.2     1  UNL1        0.2502
     24 O          64.7222   86.5933   15.3570 O.2     1  UNL1       -0.2700
     25 H          63.6277   88.7371   12.8359 H       1  UNL1        0.1498
     26 C          63.5157   85.9777   13.1400 C.ar    1  UNL1        0.1053
     27 C          62.6141   86.2435   11.9710 C.ar    1  UNL1        0.1278
     28 N          62.2799   84.9269   11.3346 N.ar    1  UNL1       -0.1622
     29 N          62.9748   83.8475   12.1104 N.ar    1  UNL1       -0.2163
     30 C          63.7386   84.4969   13.2261 C.ar    1  UNL1        0.1327
     31 N          64.5779   83.7897   14.2486 N.pl3   1  UNL1       -0.3424
     32 H          64.6634   82.8092   14.2224 H       1  UNL1        0.1437
     33 H          65.0433   84.3059   14.9458 H       1  UNL1        0.1437
     34 C          62.9164   82.3767   11.8211 C.ar    1  UNL1        0.0843
     35 C          63.2630   81.8669   10.4537 C.ar    1  UNL1        0.0215
     36 C          63.2045   80.3963   10.1645 C.ar    1  UNL1        0.0312
     37 C          62.7994   79.4354   11.2427 C.ar    1  UNL1        0.1402
     38 F          62.7409   77.9646   10.9535 F       1  UNL1       -0.2042
     39 C          62.4528   79.9452   12.6102 C.ar    1  UNL1        0.0312
     40 C          62.5113   81.4158   12.8994 C.ar    1  UNL1        0.0215
@<TRIPOS>BOND
     1     9    10    1
     2    10     8    1
     3     8     1    1
     4     1     2    1
     5     1    21    1
     6    21    22    1
     7    22    23   am
     8    23    24    2
     9    23    26    1
    10    26    27   ar
    11    27    28   ar
    12    28    29   ar
    13    29    34    1
    14    34    35   ar
    15    35    36   ar
    16    36    37   ar
    17    37    38    1
    18    37    39   ar
    19    39    40   ar
    20    29    30   ar
    21    30    31    1
    22     1     4    1
    23     4     5    1
    24     4     6    1
    25     4     7    1
    26    10    11   am
    27    11    12    2
    28    11    13    1
    29    13    14   ar
    30    14    15    1
    31    14    16   ar
    32    16    17   ar
    33    17    18   ar
    34    18    19   ar
    35    19    20    1
    36    30    26   ar
    37    19    13   ar
    38    40    34   ar
    39     2     3    1
    40    22    25    1
    41    31    32    1
    42    31    33    1
