@<TRIPOS>MOLECULE
*****
 33 36 0 0 0
SMALL
GASTEIGER

@<TRIPOS>ATOM
      1 C          62.8969   87.6628   12.0003 C.ar    1  UNL1        0.1646
      2 N          63.6836   87.6575   13.2775 N.ar    1  UNL1       -0.1496
      3 N          63.9810   86.3605   13.9698 N.ar    1  UNL1       -0.2218
      4 C          64.7274   86.0446   15.2319 C.ar    1  UNL1        0.1014
      5 C          64.6996   84.5576   15.4270 C.ar    1  UNL1        0.0326
      6 C          63.9359   83.9545   14.2855 C.ar    1  UNL1        0.0923
      7 C          63.4918   85.0688   13.3848 C.ar    1  UNL1        0.1487
      8 C          62.7052   85.0741   12.1077 C.ar    1  UNL1        0.2840
      9 O          62.2160   83.7824   11.5227 O.2     1  UNL1       -0.2649
     10 N          62.4077   86.3711   11.4154 N.ar    1  UNL1       -0.2587
     11 C          61.6211   86.3764   10.1382 C.ar    1  UNL1        0.0681
     12 C          62.2174   85.8013    8.8878 C.ar    1  UNL1        0.0176
     13 C          61.4309   85.8065    7.6106 C.ar    1  UNL1        0.0015
     14 C          60.0479   86.3868    7.5838 C.ar    1  UNL1        0.0001
     15 C          59.4515   86.9619    8.8343 C.ar    1  UNL1        0.0015
     16 C          60.2382   86.9566   10.1115 C.ar    1  UNL1        0.0176
     17 C          62.4294   88.9930    9.8181 C.3     1  UNL1        0.0295
     18 C          62.5994   88.9599   11.3080 C.3     1  UNL1        0.1301
     19 N          62.4721   90.2238   12.1057 N.pl3   1  UNL1       -0.3129
     20 H          61.5920   90.5044   12.4462 H       1  UNL1        0.1486
     21 C          63.6857   91.0600   12.3848 C.ar    1  UNL1        0.1429
     22 N          64.3638   91.7944   11.2663 N.ar    1  UNL1       -0.2084
     23 C          65.5774   92.6306   11.5454 C.ar    1  UNL1        0.2012
     24 N          66.1128   92.7325   12.9429 N.ar    1  UNL1       -0.2087
     25 C          65.4347   91.9982   14.0613 C.ar    1  UNL1        0.1396
     26 N          65.9701   92.1001   15.4588 N.pl3   1  UNL1       -0.3420
     27 C          64.2211   91.1619   13.7823 C.ar    1  UNL1        0.1308
     28 H          66.7666   92.6490   15.6419 H       1  UNL1        0.1437
     29 H          65.5250   91.6181   16.1928 H       1  UNL1        0.1437
     30 C          63.5430   90.4276   14.9007 C.1     1  UNL1        0.1061
     31 N          62.8648   89.6932   16.0190 N.1     1  UNL1       -0.1906
     32 C          63.6641   82.4936   14.0806 C.1     1  UNL1        0.1021
     33 N          63.3923   81.0328   13.8757 N.1     1  UNL1       -0.1908
@<TRIPOS>BOND
     1    18    17    1
     2    18    19    1
     3    19    21    1
     4    21    22   ar
     5    22    23   ar
     6    23    24   ar
     7    24    25   ar
     8    25    26    1
     9    25    27   ar
    10    27    30    1
    11    30    31    3
    12    18     1    1
    13     1     2   ar
    14     2     3   ar
    15     3     4   ar
    16     4     5   ar
    17     5     6   ar
    18     6    32    1
    19    32    33    3
    20     6     7   ar
    21     7     8   ar
    22     8     9    2
    23     8    10   ar
    24    10    11    1
    25    11    12   ar
    26    12    13   ar
    27    13    14   ar
    28    14    15   ar
    29    15    16   ar
    30    27    21   ar
    31    10     1   ar
    32    16    11   ar
    33     7     3   ar
    34    19    20    1
    35    26    28    1
    36    26    29    1
@<TRIPOS>MOLECULE
*****
 33 36 0 0 0
SMALL
GASTEIGER

@<TRIPOS>ATOM
      1 C          62.9009   87.5762   12.1002 C.ar    1  UNL1        0.1646
      2 N          63.7154   87.4797   13.3562 N.ar    1  UNL1       -0.1496
      3 N          64.0208   86.1368   13.9505 N.ar    1  UNL1       -0.2218
      4 C          64.7930   85.7315   15.1710 C.ar    1  UNL1        0.1014
      5 C          64.7613   84.2347   15.2636 C.ar    1  UNL1        0.0326
      6 C          63.9696   83.7149   14.1005 C.ar    1  UNL1        0.0923
      7 C          63.5119   84.8905   13.2889 C.ar    1  UNL1        0.1487
      8 C          62.6975   84.9871   12.0330 C.ar    1  UNL1        0.2840
      9 O          62.1886   83.7408   11.3714 O.2     1  UNL1       -0.2649
     10 N          62.3920   86.3300   11.4386 N.ar    1  UNL1       -0.2587
     11 C          61.5776   86.4265   10.1826 C.ar    1  UNL1        0.0681
     12 C          60.2357   87.0962   10.2087 C.ar    1  UNL1        0.0176
     13 C          59.4212   87.1928    8.9527 C.ar    1  UNL1        0.0015
     14 C          59.9487   86.6197    7.6708 C.ar    1  UNL1        0.0001
     15 C          61.2906   85.9500    7.6448 C.ar    1  UNL1        0.0015
     16 C          62.1051   85.8534    8.9008 C.ar    1  UNL1        0.0176
     17 C          62.7320   89.1337   10.0275 C.3     1  UNL1        0.0295
     18 C          62.5955   88.9192   11.5058 C.3     1  UNL1        0.1301
     19 N          62.1534   90.0476   12.3897 N.pl3   1  UNL1       -0.3129
     20 H          61.2802   90.4771   12.2401 H       1  UNL1        0.1486
     21 C          63.0417   90.5217   13.5015 C.ar    1  UNL1        0.1429
     22 N          62.7615   90.1050   14.9150 N.ar    1  UNL1       -0.2084
     23 C          63.6498   90.5791   16.0267 C.ar    1  UNL1        0.2012
     24 N          64.8185   91.4698   15.7250 N.ar    1  UNL1       -0.2087
     25 C          65.0987   91.8864   14.3116 C.ar    1  UNL1        0.1396
     26 N          66.2673   92.7771   14.0099 N.pl3   1  UNL1       -0.3420
     27 C          64.2104   91.4124   13.1998 C.ar    1  UNL1        0.1308
     28 H          66.8504   93.0882   14.7396 H       1  UNL1        0.1437
     29 H          66.4513   93.0505   13.0822 H       1  UNL1        0.1437
     30 C          64.4906   91.8290   11.7864 C.1     1  UNL1        0.1061
     31 N          64.7708   92.2456   10.3729 N.1     1  UNL1       -0.1906
     32 C          63.6854   82.2728   13.8014 C.1     1  UNL1        0.1021
     33 N          63.4011   80.8306   13.5024 N.1     1  UNL1       -0.1908
@<TRIPOS>BOND
     1    18    17    1
     2    18    19    1
     3    19    21    1
     4    21    22   ar
     5    22    23   ar
     6    23    24   ar
     7    24    25   ar
     8    25    26    1
     9    25    27   ar
    10    27    30    1
    11    30    31    3
    12    18     1    1
    13     1     2   ar
    14     2     3   ar
    15     3     4   ar
    16     4     5   ar
    17     5     6   ar
    18     6    32    1
    19    32    33    3
    20     6     7   ar
    21     7     8   ar
    22     8     9    2
    23     8    10   ar
    24    10    11    1
    25    11    12   ar
    26    12    13   ar
    27    13    14   ar
    28    14    15   ar
    29    15    16   ar
    30    27    21   ar
    31    10     1   ar
    32    16    11   ar
    33     7     3   ar
    34    19    20    1
    35    26    28    1
    36    26    29    1
@<TRIPOS>MOLECULE
*****
 33 36 0 0 0
SMALL
GASTEIGER

@<TRIPOS>ATOM
      1 C          63.4603   90.2921   12.4588 C.ar    1  UNL1        0.1646
      2 N          63.7703   91.4128   11.5111 N.ar    1  UNL1       -0.1496
      3 N          64.8671   92.3845   11.8319 N.ar    1  UNL1       -0.2218
      4 C          65.3964   93.5794   11.0958 C.ar    1  UNL1        0.1014
      5 C          66.5102   94.1690   11.9093 C.ar    1  UNL1        0.0326
      6 C          66.6693   93.3384   13.1482 C.ar    1  UNL1        0.0923
      7 C          65.6537   92.2355   13.1004 C.ar    1  UNL1        0.1487
      8 C          65.3437   91.1149   14.0480 C.ar    1  UNL1        0.2840
      9 O          66.1303   90.9659   15.3165 O.2     1  UNL1       -0.2649
     10 N          64.2469   90.1432   13.7272 N.ar    1  UNL1       -0.2587
     11 C          63.9369   89.0225   14.6749 C.ar    1  UNL1        0.0681
     12 C          63.2337   89.3074   15.9688 C.ar    1  UNL1        0.0176
     13 C          62.9236   88.1869   16.9165 C.ar    1  UNL1        0.0015
     14 C          63.3168   86.7813   16.5703 C.ar    1  UNL1        0.0001
     15 C          64.0200   86.4964   15.2763 C.ar    1  UNL1        0.0015
     16 C          64.3301   87.6170   14.3286 C.ar    1  UNL1        0.0176
     17 C          61.0443   89.4180   12.8451 C.3     1  UNL1        0.0295
     18 C          62.3635   89.3203   12.1379 C.3     1  UNL1        0.1301
     19 N          62.5860   88.2509   11.1099 N.pl3   1  UNL1       -0.3129
     20 H          63.3511   87.6373   11.1956 H       1  UNL1        0.1486
     21 C          61.6428   88.1164    9.9514 C.ar    1  UNL1        0.1429
     22 N          60.8259   89.2940    9.5087 N.ar    1  UNL1       -0.2084
     23 C          59.8828   89.1594    8.3501 C.ar    1  UNL1        0.2012
     24 N          59.7564   87.8473    7.6343 N.ar    1  UNL1       -0.2087
     25 C          60.5733   86.6697    8.0770 C.ar    1  UNL1        0.1396
     26 N          60.4469   85.3576    7.3612 N.pl3   1  UNL1       -0.3420
     27 C          61.5165   86.8042    9.2356 C.ar    1  UNL1        0.1308
     28 H          59.8278   85.2693    6.6008 H       1  UNL1        0.1437
     29 H          60.9830   84.5847    7.6518 H       1  UNL1        0.1437
     30 C          62.3333   85.6267    9.6783 C.1     1  UNL1        0.1061
     31 N          63.1502   84.4491   10.1211 N.1     1  UNL1       -0.1906
     32 C          67.6684   93.5701   14.2427 C.1     1  UNL1        0.1021
     33 N          68.6676   93.8018   15.3372 N.1     1  UNL1       -0.1908
@<TRIPOS>BOND
     1    18    17    1
     2    18    19    1
     3    19    21    1
     4    21    22   ar
     5    22    23   ar
     6    23    24   ar
     7    24    25   ar
     8    25    26    1
     9    25    27   ar
    10    27    30    1
    11    30    31    3
    12    18     1    1
    13     1     2   ar
    14     2     3   ar
    15     3     4   ar
    16     4     5   ar
    17     5     6   ar
    18     6    32    1
    19    32    33    3
    20     6     7   ar
    21     7     8   ar
    22     8     9    2
    23     8    10   ar
    24    10    11    1
    25    11    12   ar
    26    12    13   ar
    27    13    14   ar
    28    14    15   ar
    29    15    16   ar
    30    27    21   ar
    31    10     1   ar
    32    16    11   ar
    33     7     3   ar
    34    19    20    1
    35    26    28    1
    36    26    29    1
@<TRIPOS>MOLECULE
*****
 33 36 0 0 0
SMALL
GASTEIGER

@<TRIPOS>ATOM
      1 C          64.3677   89.5640   13.9266 C.ar    1  UNL1        0.1646
      2 N          65.5311   90.0575   14.7348 N.ar    1  UNL1       -0.1496
      3 N          66.1778   91.3678   14.3957 N.ar    1  UNL1       -0.2218
      4 C          67.3314   92.1058   15.0077 C.ar    1  UNL1        0.1014
      5 C          67.5276   93.3787   14.2388 C.ar    1  UNL1        0.0326
      6 C          66.4954   93.4273   13.1515 C.ar    1  UNL1        0.0923
      7 C          65.6611   92.1845   13.2485 C.ar    1  UNL1        0.1487
      8 C          64.4978   91.6910   12.4404 C.ar    1  UNL1        0.2840
      9 O          63.9811   92.5077   11.2932 O.2     1  UNL1       -0.2649
     10 N          63.8511   90.3807   12.7795 N.ar    1  UNL1       -0.2587
     11 C          62.6877   89.8872   11.9713 C.ar    1  UNL1        0.0681
     12 C          62.9118   89.3314   10.5963 C.ar    1  UNL1        0.0176
     13 C          61.7484   88.8379    9.7881 C.ar    1  UNL1        0.0015
     14 C          60.3611   88.9002   10.3550 C.ar    1  UNL1        0.0001
     15 C          60.1370   89.4560   11.7301 C.ar    1  UNL1        0.0015
     16 C          61.3004   89.9495   12.5382 C.ar    1  UNL1        0.0176
     17 C          63.2492   87.9901   15.6650 C.3     1  UNL1        0.0295
     18 C          63.7210   88.2537   14.2657 C.3     1  UNL1        0.1301
     19 N          63.5461   87.2071   13.2056 N.pl3   1  UNL1       -0.3129
     20 H          63.3662   87.4740   12.2752 H       1  UNL1        0.1486
     21 C          63.6452   85.7536   13.5630 C.ar    1  UNL1        0.1429
     22 N          64.3845   85.3339   14.7988 N.ar    1  UNL1       -0.2084
     23 C          64.4836   83.8805   15.1561 C.ar    1  UNL1        0.2012
     24 N          63.8433   82.8468   14.2777 N.ar    1  UNL1       -0.2087
     25 C          63.1040   83.2666   13.0419 C.ar    1  UNL1        0.1396
     26 N          62.4637   82.2329   12.1635 N.pl3   1  UNL1       -0.3420
     27 C          63.0049   84.7200   12.6845 C.ar    1  UNL1        0.1308
     28 H          62.5288   81.2790   12.3980 H       1  UNL1        0.1437
     29 H          61.9785   82.5084   11.3524 H       1  UNL1        0.1437
     30 C          62.2656   85.1397   11.4488 C.1     1  UNL1        0.1061
     31 N          61.5262   85.5594   10.2129 N.1     1  UNL1       -0.1906
     32 C          66.3270   94.5259   12.1442 C.1     1  UNL1        0.1021
     33 N          66.1586   95.6245   11.1368 N.1     1  UNL1       -0.1908
@<TRIPOS>BOND
     1    18    17    1
     2    18    19    1
     3    19    21    1
     4    21    22   ar
     5    22    23   ar
     6    23    24   ar
     7    24    25   ar
     8    25    26    1
     9    25    27   ar
    10    27    30    1
    11    30    31    3
    12    18     1    1
    13     1     2   ar
    14     2     3   ar
    15     3     4   ar
    16     4     5   ar
    17     5     6   ar
    18     6    32    1
    19    32    33    3
    20     6     7   ar
    21     7     8   ar
    22     8     9    2
    23     8    10   ar
    24    10    11    1
    25    11    12   ar
    26    12    13   ar
    27    13    14   ar
    28    14    15   ar
    29    15    16   ar
    30    27    21   ar
    31    10     1   ar
    32    16    11   ar
    33     7     3   ar
    34    19    20    1
    35    26    28    1
    36    26    29    1
@<TRIPOS>MOLECULE
*****
 33 36 0 0 0
SMALL
GASTEIGER

@<TRIPOS>ATOM
      1 C          63.3090   88.1145   12.9575 C.ar    1  UNL1        0.1646
      2 N          64.1241   87.4872   14.0495 N.ar    1  UNL1       -0.1496
      3 N          64.2468   85.9944   14.1306 N.ar    1  UNL1       -0.2218
      4 C          64.9756   85.0978   15.0871 C.ar    1  UNL1        0.1014
      5 C          64.7337   83.6782   14.6674 C.ar    1  UNL1        0.0326
      6 C          63.8554   83.6974   13.4516 C.ar    1  UNL1        0.0923
      7 C          63.5545   85.1290   13.1198 C.ar    1  UNL1        0.1487
      8 C          62.7395   85.7563   12.0279 C.ar    1  UNL1        0.2840
      9 O          62.0472   84.8908   11.0171 O.2     1  UNL1       -0.2649
     10 N          62.6168   87.2490   11.9468 N.ar    1  UNL1       -0.2587
     11 C          61.8017   87.8763   10.8548 C.ar    1  UNL1        0.0681
     12 C          60.3785   87.4525   10.6435 C.ar    1  UNL1        0.0176
     13 C          59.5634   88.0797    9.5516 C.ar    1  UNL1        0.0015
     14 C          60.1716   89.1307    8.6710 C.ar    1  UNL1        0.0001
     15 C          61.5949   89.5545    8.8822 C.ar    1  UNL1        0.0015
     16 C          62.4099   88.9272    9.9742 C.ar    1  UNL1        0.0176
     17 C          61.8392   90.2401   12.6896 C.3     1  UNL1        0.0295
     18 C          63.1863   89.6073   12.8764 C.3     1  UNL1        0.1301
     19 N          64.4107   90.4673   12.9820 N.pl3   1  UNL1       -0.3129
     20 H          65.0056   90.5745   12.2049 H       1  UNL1        0.1486
     21 C          64.7288   91.1642   14.2717 C.ar    1  UNL1        0.1429
     22 N          63.7591   91.1059   15.4147 N.ar    1  UNL1       -0.2084
     23 C          64.0772   91.8027   16.7043 C.ar    1  UNL1        0.2012
     24 N          65.3649   92.5578   16.8510 N.ar    1  UNL1       -0.2087
     25 C          66.3346   92.6161   15.7080 C.ar    1  UNL1        0.1396
     26 N          67.6223   93.3712   15.8548 N.pl3   1  UNL1       -0.3420
     27 C          66.0166   91.9193   14.4184 C.ar    1  UNL1        0.1308
     28 H          67.8311   93.8286   16.7012 H       1  UNL1        0.1437
     29 H          68.2588   93.4095   15.1046 H       1  UNL1        0.1437
     30 C          66.9862   91.9776   13.2755 C.1     1  UNL1        0.1061
     31 N          67.9559   92.0359   12.1325 N.1     1  UNL1       -0.1906
     32 C          63.3644   82.4960   12.6996 C.1     1  UNL1        0.1021
     33 N          62.8733   81.2947   11.9476 N.1     1  UNL1       -0.1908
@<TRIPOS>BOND
     1    18    17    1
     2    18    19    1
     3    19    21    1
     4    21    22   ar
     5    22    23   ar
     6    23    24   ar
     7    24    25   ar
     8    25    26    1
     9    25    27   ar
    10    27    30    1
    11    30    31    3
    12    18     1    1
    13     1     2   ar
    14     2     3   ar
    15     3     4   ar
    16     4     5   ar
    17     5     6   ar
    18     6    32    1
    19    32    33    3
    20     6     7   ar
    21     7     8   ar
    22     8     9    2
    23     8    10   ar
    24    10    11    1
    25    11    12   ar
    26    12    13   ar
    27    13    14   ar
    28    14    15   ar
    29    15    16   ar
    30    27    21   ar
    31    10     1   ar
    32    16    11   ar
    33     7     3   ar
    34    19    20    1
    35    26    28    1
    36    26    29    1
@<TRIPOS>MOLECULE
*****
 33 36 0 0 0
SMALL
GASTEIGER

@<TRIPOS>ATOM
      1 C          63.3687   89.8310   12.4439 C.ar    1  UNL1        0.1646
      2 N          63.6518   90.8564   11.3863 N.ar    1  UNL1       -0.1496
      3 N          64.6677   91.9312   11.6367 N.ar    1  UNL1       -0.2218
      4 C          65.1545   93.0692   10.7893 C.ar    1  UNL1        0.1014
      5 C          66.1882   93.8219   11.5736 C.ar    1  UNL1        0.0326
      6 C          66.3402   93.1491   12.9056 C.ar    1  UNL1        0.0923
      7 C          65.4005   91.9806   12.9446 C.ar    1  UNL1        0.1487
      8 C          65.1174   90.9552   14.0021 C.ar    1  UNL1        0.2840
      9 O          65.8502   91.0046   15.3100 O.2     1  UNL1       -0.2649
     10 N          64.1015   89.8804   13.7517 N.ar    1  UNL1       -0.2587
     11 C          63.8184   88.8549   14.8093 C.ar    1  UNL1        0.0681
     12 C          64.3778   87.4693   14.6792 C.ar    1  UNL1        0.0176
     13 C          64.0948   86.4438   15.7367 C.ar    1  UNL1        0.0015
     14 C          63.2523   86.8040   16.9243 C.ar    1  UNL1        0.0001
     15 C          62.6929   88.1897   17.0545 C.ar    1  UNL1        0.0015
     16 C          62.9760   89.2151   15.9969 C.ar    1  UNL1        0.0176
     17 C          60.9483   89.1246   11.8172 C.3     1  UNL1        0.0295
     18 C          62.3528   88.7561   12.1935 C.3     1  UNL1        0.1301
     19 N          62.7414   87.3128   12.3194 N.pl3   1  UNL1       -0.3129
     20 H          62.9586   86.9367   13.2029 H       1  UNL1        0.1486
     21 C          62.7991   86.4424   11.0991 C.ar    1  UNL1        0.1429
     22 N          62.4211   87.0025    9.7599 N.ar    1  UNL1       -0.2084
     23 C          62.4788   86.1321    8.5396 C.ar    1  UNL1        0.2012
     24 N          62.9144   84.7017    8.6585 N.ar    1  UNL1       -0.2087
     25 C          63.2924   84.1417    9.9977 C.ar    1  UNL1        0.1396
     26 N          63.7281   82.7113   10.1166 N.pl3   1  UNL1       -0.3420
     27 C          63.2347   85.0120   11.2180 C.ar    1  UNL1        0.1308
     28 H          63.7659   82.1400    9.3157 H       1  UNL1        0.1437
     29 H          63.9762   82.3437   10.9956 H       1  UNL1        0.1437
     30 C          63.6127   84.4520   12.5572 C.1     1  UNL1        0.1061
     31 N          63.9907   83.8920   13.8964 N.1     1  UNL1       -0.1906
     32 C          67.2689   93.5708   14.0054 C.1     1  UNL1        0.1021
     33 N          68.1976   93.9925   15.1053 N.1     1  UNL1       -0.1908
@<TRIPOS>BOND
     1    18    17    1
     2    18    19    1
     3    19    21    1
     4    21    22   ar
     5    22    23   ar
     6    23    24   ar
     7    24    25   ar
     8    25    26    1
     9    25    27   ar
    10    27    30    1
    11    30    31    3
    12    18     1    1
    13     1     2   ar
    14     2     3   ar
    15     3     4   ar
    16     4     5   ar
    17     5     6   ar
    18     6    32    1
    19    32    33    3
    20     6     7   ar
    21     7     8   ar
    22     8     9    2
    23     8    10   ar
    24    10    11    1
    25    11    12   ar
    26    12    13   ar
    27    13    14   ar
    28    14    15   ar
    29    15    16   ar
    30    27    21   ar
    31    10     1   ar
    32    16    11   ar
    33     7     3   ar
    34    19    20    1
    35    26    28    1
    36    26    29    1
@<TRIPOS>MOLECULE
*****
 33 36 0 0 0
SMALL
GASTEIGER

@<TRIPOS>ATOM
      1 C          64.1345   90.2512   14.0060 C.ar    1  UNL1        0.1646
      2 N          65.2078   91.1015   14.6186 N.ar    1  UNL1       -0.1496
      3 N          65.8017   92.2368   13.8386 N.ar    1  UNL1       -0.2218
      4 C          66.8652   93.2389   14.1770 C.ar    1  UNL1        0.1014
      5 C          67.0432   94.1433   12.9936 C.ar    1  UNL1        0.0326
      6 C          66.0896   93.7001   11.9239 C.ar    1  UNL1        0.0923
      7 C          65.3223   92.5218   12.4461 C.ar    1  UNL1        0.1487
      8 C          64.2491   91.6715   11.8336 C.ar    1  UNL1        0.2840
      9 O          63.7697   91.9565   10.4411 O.2     1  UNL1       -0.2649
     10 N          63.6552   90.5362   12.6136 N.ar    1  UNL1       -0.2587
     11 C          62.5819   89.6859   12.0010 C.ar    1  UNL1        0.0681
     12 C          62.9426   88.4010   11.3163 C.ar    1  UNL1        0.0176
     13 C          61.8694   87.5507   10.7037 C.ar    1  UNL1        0.0015
     14 C          60.4355   87.9853   10.7759 C.ar    1  UNL1        0.0001
     15 C          60.0749   89.2702   11.4606 C.ar    1  UNL1        0.0015
     16 C          61.1482   90.1205   12.0732 C.ar    1  UNL1        0.0176
     17 C          62.5759   89.3950   15.9003 C.3     1  UNL1        0.0295
     18 C          63.5406   89.1158   14.7860 C.3     1  UNL1        0.1301
     19 N          63.9113   87.7013   14.4518 N.pl3   1  UNL1       -0.3129
     20 H          64.4560   87.5105   13.6542 H       1  UNL1        0.1486
     21 C          63.4522   86.5775   15.3328 C.ar    1  UNL1        0.1429
     22 N          63.2085   86.8205   16.7927 N.ar    1  UNL1       -0.2084
     23 C          62.7494   85.6966   17.6737 C.ar    1  UNL1        0.2012
     24 N          62.5339   84.3298   17.0947 N.ar    1  UNL1       -0.2087
     25 C          62.7776   84.0867   15.6347 C.ar    1  UNL1        0.1396
     26 N          62.5622   82.7199   15.0557 N.pl3   1  UNL1       -0.3420
     27 C          63.2368   85.2106   14.7537 C.ar    1  UNL1        0.1308
     28 H          62.2609   81.9822   15.6339 H       1  UNL1        0.1437
     29 H          62.7222   82.5604   14.0974 H       1  UNL1        0.1437
     30 C          63.4805   84.9676   13.2938 C.1     1  UNL1        0.1061
     31 N          63.7243   84.7246   11.8338 N.1     1  UNL1       -0.1906
     32 C          65.9312   94.3255   10.5697 C.1     1  UNL1        0.1021
     33 N          65.7728   94.9508    9.2155 N.1     1  UNL1       -0.1908
@<TRIPOS>BOND
     1    18    17    1
     2    18    19    1
     3    19    21    1
     4    21    22   ar
     5    22    23   ar
     6    23    24   ar
     7    24    25   ar
     8    25    26    1
     9    25    27   ar
    10    27    30    1
    11    30    31    3
    12    18     1    1
    13     1     2   ar
    14     2     3   ar
    15     3     4   ar
    16     4     5   ar
    17     5     6   ar
    18     6    32    1
    19    32    33    3
    20     6     7   ar
    21     7     8   ar
    22     8     9    2
    23     8    10   ar
    24    10    11    1
    25    11    12   ar
    26    12    13   ar
    27    13    14   ar
    28    14    15   ar
    29    15    16   ar
    30    27    21   ar
    31    10     1   ar
    32    16    11   ar
    33     7     3   ar
    34    19    20    1
    35    26    28    1
    36    26    29    1
@<TRIPOS>MOLECULE
*****
 33 36 0 0 0
SMALL
GASTEIGER

@<TRIPOS>ATOM
      1 C          63.3277   88.6858   12.4770 C.ar    1  UNL1        0.1646
      2 N          64.2518   89.2364   13.5225 N.ar    1  UNL1       -0.1496
      3 N          64.8686   90.5914   13.3396 N.ar    1  UNL1       -0.2218
      4 C          65.8097   91.3892   14.1928 C.ar    1  UNL1        0.1014
      5 C          66.0841   92.6866   13.4919 C.ar    1  UNL1        0.0326
      6 C          65.3126   92.6907   12.2055 C.ar    1  UNL1        0.0923
      7 C          64.5614   91.3958   12.1114 C.ar    1  UNL1        0.1487
      8 C          63.6374   90.8452   11.0659 C.ar    1  UNL1        0.2840
      9 O          63.3302   91.6495    9.8377 O.2     1  UNL1       -0.2649
     10 N          63.0205   89.4902   11.2488 N.ar    1  UNL1       -0.2587
     11 C          62.0964   88.9396   10.2033 C.ar    1  UNL1        0.0681
     12 C          60.8645   89.7021    9.8147 C.ar    1  UNL1        0.0176
     13 C          59.9404   89.1516    8.7692 C.ar    1  UNL1        0.0015
     14 C          60.2482   87.8386    8.1124 C.ar    1  UNL1        0.0001
     15 C          61.4801   87.0761    8.5011 C.ar    1  UNL1        0.0015
     16 C          62.4042   87.6267    9.5466 C.ar    1  UNL1        0.0176
     17 C          61.3001   87.0826   12.2143 C.3     1  UNL1        0.0295
     18 C          62.7107   87.3308   12.6598 C.3     1  UNL1        0.1301
     19 N          63.5045   86.2239   13.2882 N.pl3   1  UNL1       -0.3129
     20 H          64.2296   86.4353   13.9197 H       1  UNL1        0.1486
     21 C          63.1935   84.7950   12.9543 C.ar    1  UNL1        0.1429
     22 N          63.3771   84.2954   11.5519 N.ar    1  UNL1       -0.2084
     23 C          63.0661   82.8665   11.2181 C.ar    1  UNL1        0.2012
     24 N          62.5715   81.9372   12.2867 N.ar    1  UNL1       -0.2087
     25 C          62.3879   82.4368   13.6891 C.ar    1  UNL1        0.1396
     26 N          61.8933   81.5075   14.7576 N.pl3   1  UNL1       -0.3420
     27 C          62.6989   83.8657   14.0229 C.ar    1  UNL1        0.1308
     28 H          61.6892   80.5696   14.5385 H       1  UNL1        0.1437
     29 H          61.7728   81.8354   15.6780 H       1  UNL1        0.1437
     30 C          62.5153   84.3653   15.4252 C.1     1  UNL1        0.1061
     31 N          62.3317   84.8649   16.8276 N.1     1  UNL1       -0.1906
     32 C          65.2954   93.7957   11.1913 C.1     1  UNL1        0.1021
     33 N          65.2782   94.9007   10.1770 N.1     1  UNL1       -0.1908
@<TRIPOS>BOND
     1    18    17    1
     2    18    19    1
     3    19    21    1
     4    21    22   ar
     5    22    23   ar
     6    23    24   ar
     7    24    25   ar
     8    25    26    1
     9    25    27   ar
    10    27    30    1
    11    30    31    3
    12    18     1    1
    13     1     2   ar
    14     2     3   ar
    15     3     4   ar
    16     4     5   ar
    17     5     6   ar
    18     6    32    1
    19    32    33    3
    20     6     7   ar
    21     7     8   ar
    22     8     9    2
    23     8    10   ar
    24    10    11    1
    25    11    12   ar
    26    12    13   ar
    27    13    14   ar
    28    14    15   ar
    29    15    16   ar
    30    27    21   ar
    31    10     1   ar
    32    16    11   ar
    33     7     3   ar
    34    19    20    1
    35    26    28    1
    36    26    29    1
@<TRIPOS>MOLECULE
*****
 33 36 0 0 0
SMALL
GASTEIGER

@<TRIPOS>ATOM
      1 C          63.4058   88.0022   13.1468 C.ar    1  UNL1        0.1646
      2 N          64.2099   87.2880   14.1925 N.ar    1  UNL1       -0.1496
      3 N          64.2983   85.7907   14.1776 N.ar    1  UNL1       -0.2218
      4 C          65.0095   84.8183   15.0713 C.ar    1  UNL1        0.1014
      5 C          64.7333   83.4343   14.5632 C.ar    1  UNL1        0.0326
      6 C          63.8514   83.5513   13.3555 C.ar    1  UNL1        0.0923
      7 C          63.5826   85.0076   13.1172 C.ar    1  UNL1        0.1487
      8 C          62.7785   85.7219   12.0716 C.ar    1  UNL1        0.2840
      9 O          62.0628   84.9388   11.0111 O.2     1  UNL1       -0.2649
     10 N          62.6901   87.2192   12.0864 N.ar    1  UNL1       -0.2587
     11 C          61.8860   87.9334   11.0407 C.ar    1  UNL1        0.0681
     12 C          62.5509   88.9207   10.1280 C.ar    1  UNL1        0.0176
     13 C          61.7469   89.6349    9.0823 C.ar    1  UNL1        0.0015
     14 C          60.2779   89.3618    8.9494 C.ar    1  UNL1        0.0001
     15 C          59.6130   88.3745    9.8622 C.ar    1  UNL1        0.0015
     16 C          60.4172   87.6603   10.9079 C.ar    1  UNL1        0.0176
     17 C          62.0276   90.1783   12.8071 C.3     1  UNL1        0.0295
     18 C          63.3174   89.4996   13.1616 C.3     1  UNL1        0.1301
     19 N          64.5189   90.3182   13.5310 N.pl3   1  UNL1       -0.3129
     20 H          65.0550   90.0770   14.3207 H       1  UNL1        0.1486
     21 C          64.9035   91.5042   12.6972 C.ar    1  UNL1        0.1429
     22 N          64.5254   91.5555   11.2465 N.ar    1  UNL1       -0.2084
     23 C          64.9100   92.7416   10.4128 C.ar    1  UNL1        0.2012
     24 N          65.6727   93.8764   11.0296 N.ar    1  UNL1       -0.2087
     25 C          66.0508   93.8251   12.4803 C.ar    1  UNL1        0.1396
     26 N          66.8135   94.9600   13.0971 N.pl3   1  UNL1       -0.3420
     27 C          65.6662   92.6391   13.3141 C.ar    1  UNL1        0.1308
     28 H          67.0659   95.7384   12.5498 H       1  UNL1        0.1437
     29 H          67.0616   94.9263   14.0492 H       1  UNL1        0.1437
     30 C          66.0443   92.5878   14.7647 C.1     1  UNL1        0.1061
     31 N          66.4223   92.5365   16.2154 N.1     1  UNL1       -0.1906
     32 C          63.3300   82.4119   12.5309 C.1     1  UNL1        0.1021
     33 N          62.8085   81.2726   11.7062 N.1     1  UNL1       -0.1908
@<TRIPOS>BOND
     1    18    17    1
     2    18    19    1
     3    19    21    1
     4    21    22   ar
     5    22    23   ar
     6    23    24   ar
     7    24    25   ar
     8    25    26    1
     9    25    27   ar
    10    27    30    1
    11    30    31    3
    12    18     1    1
    13     1     2   ar
    14     2     3   ar
    15     3     4   ar
    16     4     5   ar
    17     5     6   ar
    18     6    32    1
    19    32    33    3
    20     6     7   ar
    21     7     8   ar
    22     8     9    2
    23     8    10   ar
    24    10    11    1
    25    11    12   ar
    26    12    13   ar
    27    13    14   ar
    28    14    15   ar
    29    15    16   ar
    30    27    21   ar
    31    10     1   ar
    32    16    11   ar
    33     7     3   ar
    34    19    20    1
    35    26    28    1
    36    26    29    1
