@<TRIPOS>MOLECULE
*****
 34 37 0 0 0
SMALL
GASTEIGER

@<TRIPOS>ATOM
      1 C          63.8195   89.4484   15.0336 C.2     1  UNL1        0.2320
      2 O          62.4741   89.3334   15.6866 O.2     1  UNL1       -0.2744
      3 N          64.5892   88.2107   14.6788 N.am    1  UNL1       -0.2639
      4 H          65.4723   88.2862   14.2502 H       1  UNL1        0.1567
      5 C          64.0134   86.8582   14.9769 C.ar    1  UNL1        0.1655
      6 N          63.7609   85.7677   13.9784 N.ar    1  UNL1       -0.2239
      7 C          63.1804   84.5942   14.7102 C.ar    1  UNL1        0.0913
      8 C          63.0740   84.9593   16.1612 C.ar    1  UNL1        0.0573
      9 S          63.5888   86.3585   16.3260 S.2     1  UNL1       -0.0508
     10 C          62.7770   83.2853   14.0986 C.ar    1  UNL1        0.0403
     11 C          61.9140   82.2404   14.7416 C.ar    1  UNL1        0.1021
     12 N          61.7695   81.1008   13.7769 N.ar    1  UNL1       -0.2269
     13 C          62.5432   81.4414   12.5378 C.ar    1  UNL1        0.1406
     14 N          62.7612   80.6966   11.2542 N.ar    1  UNL1       -0.3374
     15 C          63.6018   81.3019   10.1694 C.ar    1  UNL1        0.0735
     16 C          64.2245   82.6520   10.3682 C.ar    1  UNL1        0.0186
     17 C          64.0065   83.3968   11.6518 C.ar    1  UNL1        0.0046
     18 C          63.1659   82.7915   12.7366 C.ar    1  UNL1        0.0370
     19 H          62.3525   79.8105   11.1237 H       1  UNL1        0.1674
     20 C          64.3954   90.8009   14.7354 C.3     1  UNL1        0.1117
     21 C          63.4528   91.3577   10.9207 C.ar    1  UNL1        0.0641
     22 C          64.5391   92.3003   10.4949 C.ar    1  UNL1        0.0158
     23 C          65.5776   92.7432   11.4826 C.ar    1  UNL1        0.0010
     24 C          65.5297   92.2434   12.8962 C.ar    1  UNL1       -0.0037
     25 C          64.4433   91.3007   13.3219 C.ar    1  UNL1       -0.0118
     26 C          63.4048   90.8579   12.3342 C.ar    1  UNL1        0.0121
     27 N          62.4143   90.9148    9.9331 N.pl3   1  UNL1       -0.2188
     28 H          62.2675   91.4317    9.1081 H       1  UNL1        0.1734
     29 S          61.5996   89.6845   10.2023 S.O2    1  UNL1        0.0539
     30 O          62.7634   88.8265    9.8029 O.2     1  UNL1       -0.1545
     31 O          60.4359   90.5424   10.6017 O.2     1  UNL1       -0.1545
     32 C          60.7850   88.4540   10.4715 C.3     1  UNL1        0.1724
     33 C          61.4204   86.0399   11.1911 C.3     1  UNL1        0.0019
     34 C          61.3365   87.1006   10.1339 C.3     1  UNL1        0.0273
@<TRIPOS>BOND
     1    33    34    1
     2    34    32    1
     3    32    29    1
     4    29    30    2
     5    29    31    2
     6    29    27    1
     7    27    21    1
     8    21    22   ar
     9    22    23   ar
    10    23    24   ar
    11    24    25   ar
    12    25    20    1
    13    20     1    1
    14     1     2    2
    15     1     3   am
    16     3     5    1
    17     5     6   ar
    18     6     7   ar
    19     7    10    1
    20    10    11   ar
    21    11    12   ar
    22    12    13   ar
    23    13    14   ar
    24    14    15   ar
    25    15    16   ar
    26    16    17   ar
    27    17    18   ar
    28     7     8   ar
    29     8     9   ar
    30    25    26   ar
    31    26    21   ar
    32     9     5   ar
    33    18    10   ar
    34    18    13    1
    35    27    28    1
    36     3     4    1
    37    14    19    1
@<TRIPOS>MOLECULE
*****
 34 37 0 0 0
SMALL
GASTEIGER

@<TRIPOS>ATOM
      1 C          62.3013   87.1219   10.5952 C.2     1  UNL1        0.2320
      2 O          62.0135   88.3035    9.7173 O.2     1  UNL1       -0.2744
      3 N          62.8883   87.3271   11.9603 N.am    1  UNL1       -0.2639
      4 H          63.0773   86.5515   12.5365 H       1  UNL1        0.1567
      5 C          63.1874   88.7138   12.4473 C.ar    1  UNL1        0.1655
      6 N          63.9004   89.0672   13.7189 N.ar    1  UNL1       -0.2239
      7 C          63.9797   90.5625   13.8058 C.ar    1  UNL1        0.0913
      8 C          63.3157   91.1335   12.5880 C.ar    1  UNL1        0.0573
      9 S          62.8260   89.9910   11.7484 S.2     1  UNL1       -0.0508
     10 C          64.6119   91.3489   14.9157 C.ar    1  UNL1        0.0403
     11 C          63.9491   91.7515   16.1996 C.ar    1  UNL1        0.1021
     12 N          64.9456   92.5222   17.0139 N.ar    1  UNL1       -0.2269
     13 C          66.2243   92.5960   16.2332 C.ar    1  UNL1        0.1406
     14 N          67.5497   93.2297   16.5356 N.ar    1  UNL1       -0.3374
     15 C          68.6689   93.1384   15.5412 C.ar    1  UNL1        0.0735
     16 C          68.4627   92.4132   14.2444 C.ar    1  UNL1        0.0186
     17 C          67.1373   91.7795   13.9420 C.ar    1  UNL1        0.0046
     18 C          66.0181   91.8708   14.9364 C.ar    1  UNL1        0.0370
     19 H          67.6850   93.7057   17.3867 H       1  UNL1        0.1674
     20 C          62.0023   85.7350   10.1082 C.3     1  UNL1        0.1117
     21 C          63.5684   83.1483   12.6784 C.ar    1  UNL1        0.0641
     22 C          64.3015   82.2304   11.7457 C.ar    1  UNL1        0.0158
     23 C          64.2683   82.4807   10.2671 C.ar    1  UNL1        0.0010
     24 C          63.5018   83.6490    9.7212 C.ar    1  UNL1       -0.0037
     25 C          62.7687   84.5669   10.6540 C.ar    1  UNL1       -0.0118
     26 C          62.8020   84.3164   12.1327 C.ar    1  UNL1        0.0121
     27 N          63.6017   82.8979   14.1570 N.pl3   1  UNL1       -0.2188
     28 H          63.5638   81.9764   14.5012 H       1  UNL1        0.1734
     29 S          63.6926   84.0518   15.1112 S.O2    1  UNL1        0.0539
     30 O          62.3193   83.7351   15.6249 O.2     1  UNL1       -0.1545
     31 O          65.0659   84.3684   14.5975 O.2     1  UNL1       -0.1545
     32 C          63.7835   85.2056   16.0654 C.3     1  UNL1        0.1724
     33 C          62.6894   86.7222   17.8690 C.3     1  UNL1        0.0019
     34 C          62.5775   85.6245   16.8528 C.3     1  UNL1        0.0273
@<TRIPOS>BOND
     1    33    34    1
     2    34    32    1
     3    32    29    1
     4    29    30    2
     5    29    31    2
     6    29    27    1
     7    27    21    1
     8    21    22   ar
     9    22    23   ar
    10    23    24   ar
    11    24    25   ar
    12    25    20    1
    13    20     1    1
    14     1     2    2
    15     1     3   am
    16     3     5    1
    17     5     6   ar
    18     6     7   ar
    19     7    10    1
    20    10    11   ar
    21    11    12   ar
    22    12    13   ar
    23    13    14   ar
    24    14    15   ar
    25    15    16   ar
    26    16    17   ar
    27    17    18   ar
    28     7     8   ar
    29     8     9   ar
    30    25    26   ar
    31    26    21   ar
    32     9     5   ar
    33    18    10   ar
    34    18    13    1
    35    27    28    1
    36     3     4    1
    37    14    19    1
@<TRIPOS>MOLECULE
*****
 34 37 0 0 0
SMALL
GASTEIGER

@<TRIPOS>ATOM
      1 C          62.1860   86.7411   10.5213 C.2     1  UNL1        0.2320
      2 O          62.7360   87.0727    9.1658 O.2     1  UNL1       -0.2744
      3 N          62.1345   87.7944   11.5880 N.am    1  UNL1       -0.2639
      4 H          61.7735   87.5768   12.4777 H       1  UNL1        0.1567
      5 C          62.6330   89.1793   11.2992 C.ar    1  UNL1        0.1655
      6 N          63.7721   89.8684   11.9902 N.ar    1  UNL1       -0.2239
      7 C          63.9230   91.2333   11.3868 C.ar    1  UNL1        0.0913
      8 C          62.8772   91.3879   10.3227 C.ar    1  UNL1        0.0573
      9 S          62.0799   90.1185   10.2685 S.2     1  UNL1       -0.0508
     10 C          64.9411   92.2629   11.7786 C.ar    1  UNL1        0.0403
     11 C          65.5038   93.3301   10.8873 C.ar    1  UNL1        0.1021
     12 N          66.4856   94.1328   11.6884 N.ar    1  UNL1       -0.2269
     13 C          66.5297   93.5617   13.0747 C.ar    1  UNL1        0.1406
     14 N          67.3157   93.9447   14.2935 N.ar    1  UNL1       -0.3374
     15 C          67.1471   93.1720   15.5680 C.ar    1  UNL1        0.0735
     16 C          66.1925   92.0163   15.6238 C.ar    1  UNL1        0.0186
     17 C          65.4065   91.6333   14.4050 C.ar    1  UNL1        0.0046
     18 C          65.5751   92.4060   13.1305 C.ar    1  UNL1        0.0370
     19 H          67.9422   94.7032   14.2569 H       1  UNL1        0.1674
     20 C          61.6874   85.3562   10.8101 C.3     1  UNL1        0.1117
     21 C          63.5797   83.6272   13.8400 C.ar    1  UNL1        0.0641
     22 C          64.2500   82.4826   13.1395 C.ar    1  UNL1        0.0158
     23 C          64.0661   82.2958   11.6626 C.ar    1  UNL1        0.0010
     24 C          63.2119   83.2537   10.8861 C.ar    1  UNL1       -0.0037
     25 C          62.5416   84.3983   11.5866 C.ar    1  UNL1       -0.0118
     26 C          62.7256   84.5850   13.0636 C.ar    1  UNL1        0.0121
     27 N          63.7637   83.8139   15.3169 N.pl3   1  UNL1       -0.2188
     28 H          64.0203   83.0494   15.8816 H       1  UNL1        0.1734
     29 S          63.5566   85.1656   15.9335 S.O2    1  UNL1        0.0539
     30 O          64.8605   85.6293   15.3547 O.2     1  UNL1       -0.1545
     31 O          62.2528   84.7019   16.5123 O.2     1  UNL1       -0.1545
     32 C          63.3497   86.5173   16.5500 C.3     1  UNL1        0.1724
     33 C          63.2763   89.0995   16.2728 C.3     1  UNL1        0.0019
     34 C          63.7333   87.7539   15.7926 C.3     1  UNL1        0.0273
@<TRIPOS>BOND
     1    33    34    1
     2    34    32    1
     3    32    29    1
     4    29    30    2
     5    29    31    2
     6    29    27    1
     7    27    21    1
     8    21    22   ar
     9    22    23   ar
    10    23    24   ar
    11    24    25   ar
    12    25    20    1
    13    20     1    1
    14     1     2    2
    15     1     3   am
    16     3     5    1
    17     5     6   ar
    18     6     7   ar
    19     7    10    1
    20    10    11   ar
    21    11    12   ar
    22    12    13   ar
    23    13    14   ar
    24    14    15   ar
    25    15    16   ar
    26    16    17   ar
    27    17    18   ar
    28     7     8   ar
    29     8     9   ar
    30    25    26   ar
    31    26    21   ar
    32     9     5   ar
    33    18    10   ar
    34    18    13    1
    35    27    28    1
    36     3     4    1
    37    14    19    1
@<TRIPOS>MOLECULE
*****
 34 37 0 0 0
SMALL
GASTEIGER

@<TRIPOS>ATOM
      1 C          64.6128   85.9962   14.9678 C.2     1  UNL1        0.2320
      2 O          66.0232   86.4370   15.2254 O.2     1  UNL1       -0.2744
      3 N          63.4980   86.9997   14.9876 N.am    1  UNL1       -0.2639
      4 H          62.5723   86.7104   14.8185 H       1  UNL1        0.1567
      5 C          63.7937   88.4438   15.2649 C.ar    1  UNL1        0.1655
      6 N          64.7190   89.3218   14.4757 N.ar    1  UNL1       -0.2239
      7 C          64.7131   90.6841   15.1032 C.ar    1  UNL1        0.0913
      8 C          63.7842   90.6482   16.2804 C.ar    1  UNL1        0.0573
      9 S          63.2160   89.2636   16.3804 S.2     1  UNL1       -0.0508
     10 C          65.4983   91.8736   14.6357 C.ar    1  UNL1        0.0403
     11 C          66.3600   92.7534   15.4922 C.ar    1  UNL1        0.1021
     12 N          66.9539   93.8156   14.6154 N.ar    1  UNL1       -0.2269
     13 C          66.4593   93.5925   13.2170 C.ar    1  UNL1        0.1406
     14 N          66.7118   94.3271   11.9339 N.ar    1  UNL1       -0.3374
     15 C          66.0648   93.8615   10.6632 C.ar    1  UNL1        0.0735
     16 C          65.1652   92.6613   10.6758 C.ar    1  UNL1        0.0186
     17 C          64.9127   91.9266   11.9589 C.ar    1  UNL1        0.0046
     18 C          65.5597   92.3922   13.2295 C.ar    1  UNL1        0.0370
     19 H          67.3023   95.1149   11.9256 H       1  UNL1        0.1674
     20 C          64.3171   84.5521   14.6904 C.3     1  UNL1        0.1117
     21 C          62.5782   84.4431   11.1246 C.ar    1  UNL1        0.0641
     22 C          63.2368   83.2363   10.5248 C.ar    1  UNL1        0.0158
     23 C          64.2555   82.4680   11.3135 C.ar    1  UNL1        0.0010
     24 C          64.6156   82.9066   12.7021 C.ar    1  UNL1       -0.0037
     25 C          63.9570   84.1135   13.3019 C.ar    1  UNL1       -0.0118
     26 C          62.9383   84.8818   12.5131 C.ar    1  UNL1        0.0121
     27 N          61.5595   85.2114   10.3360 N.pl3   1  UNL1       -0.2188
     28 H          60.7435   84.7627   10.0166 H       1  UNL1        0.1734
     29 S          61.7841   86.6634   10.0338 S.O2    1  UNL1        0.0539
     30 O          60.9348   87.0398   11.2117 O.2     1  UNL1       -0.1545
     31 O          62.6334   86.2871    8.8561 O.2     1  UNL1       -0.1545
     32 C          62.0087   88.1155    9.7318 C.3     1  UNL1        0.1724
     33 C          62.0014   90.5728   10.5752 C.3     1  UNL1        0.0019
     34 C          62.1316   89.1045   10.8528 C.3     1  UNL1        0.0273
@<TRIPOS>BOND
     1    33    34    1
     2    34    32    1
     3    32    29    1
     4    29    30    2
     5    29    31    2
     6    29    27    1
     7    27    21    1
     8    21    22   ar
     9    22    23   ar
    10    23    24   ar
    11    24    25   ar
    12    25    20    1
    13    20     1    1
    14     1     2    2
    15     1     3   am
    16     3     5    1
    17     5     6   ar
    18     6     7   ar
    19     7    10    1
    20    10    11   ar
    21    11    12   ar
    22    12    13   ar
    23    13    14   ar
    24    14    15   ar
    25    15    16   ar
    26    16    17   ar
    27    17    18   ar
    28     7     8   ar
    29     8     9   ar
    30    25    26   ar
    31    26    21   ar
    32     9     5   ar
    33    18    10   ar
    34    18    13    1
    35    27    28    1
    36     3     4    1
    37    14    19    1
@<TRIPOS>MOLECULE
*****
 34 37 0 0 0
SMALL
GASTEIGER

@<TRIPOS>ATOM
      1 C          64.2395   90.2995   14.6498 C.2     1  UNL1        0.2320
      2 O          64.0463   89.8736   13.2246 O.2     1  UNL1       -0.2744
      3 N          65.3858   91.1949   15.0162 N.am    1  UNL1       -0.2639
      4 H          65.5126   91.4744   15.9516 H       1  UNL1        0.1567
      5 C          66.3389   91.6643   13.9574 C.ar    1  UNL1        0.1655
      6 N          65.9622   92.2461   12.6271 N.ar    1  UNL1       -0.2239
      7 C          67.2265   92.5757   11.8905 C.ar    1  UNL1        0.0913
      8 C          68.3848   92.1977   12.7654 C.ar    1  UNL1        0.0573
      9 S          67.8362   91.6344   14.0428 S.2     1  UNL1       -0.0508
     10 C          67.3169   93.1777   10.5195 C.ar    1  UNL1        0.0403
     11 C          68.0911   92.6213    9.3615 C.ar    1  UNL1        0.1021
     12 N          67.9015   93.5415    8.1923 N.ar    1  UNL1       -0.2269
     13 C          67.0102   94.6667    8.6276 C.ar    1  UNL1        0.1406
     14 N          66.4809   95.8669    7.9001 N.ar    1  UNL1       -0.3374
     15 C          65.5903   96.8423    8.6110 C.ar    1  UNL1        0.0735
     16 C          65.2290   96.6175   10.0494 C.ar    1  UNL1        0.0186
     17 C          65.7583   95.4172   10.7768 C.ar    1  UNL1        0.0046
     18 C          66.6489   94.4418   10.0660 C.ar    1  UNL1        0.0370
     19 H          66.7181   96.0145    6.9561 H       1  UNL1        0.1674
     20 C          63.2864   89.8301   15.7087 C.3     1  UNL1        0.1117
     21 C          63.9496   85.9173   15.7358 C.ar    1  UNL1        0.0641
     22 C          63.3641   85.5397   17.0642 C.ar    1  UNL1        0.0158
     23 C          62.7527   86.5922   17.9408 C.ar    1  UNL1        0.0010
     24 C          62.7268   88.0224   17.4889 C.ar    1  UNL1       -0.0037
     25 C          63.3123   88.4000   16.1605 C.ar    1  UNL1       -0.0118
     26 C          63.9237   87.3474   15.2839 C.ar    1  UNL1        0.0121
     27 N          64.5610   84.8648   14.8592 N.pl3   1  UNL1       -0.2188
     28 H          65.5033   84.9398   14.5841 H       1  UNL1        0.1734
     29 S          63.7367   83.6981   14.4017 S.O2    1  UNL1        0.0539
     30 O          63.0142   84.5881   13.4341 O.2     1  UNL1       -0.1545
     31 O          64.4590   82.8082   15.3692 O.2     1  UNL1       -0.1545
     32 C          62.9123   82.5314   13.9441 C.3     1  UNL1        0.1724
     33 C          62.6779   80.4623   12.3905 C.3     1  UNL1        0.0019
     34 C          63.2715   81.8092   12.6795 C.3     1  UNL1        0.0273
@<TRIPOS>BOND
     1    33    34    1
     2    34    32    1
     3    32    29    1
     4    29    30    2
     5    29    31    2
     6    29    27    1
     7    27    21    1
     8    21    22   ar
     9    22    23   ar
    10    23    24   ar
    11    24    25   ar
    12    25    20    1
    13    20     1    1
    14     1     2    2
    15     1     3   am
    16     3     5    1
    17     5     6   ar
    18     6     7   ar
    19     7    10    1
    20    10    11   ar
    21    11    12   ar
    22    12    13   ar
    23    13    14   ar
    24    14    15   ar
    25    15    16   ar
    26    16    17   ar
    27    17    18   ar
    28     7     8   ar
    29     8     9   ar
    30    25    26   ar
    31    26    21   ar
    32     9     5   ar
    33    18    10   ar
    34    18    13    1
    35    27    28    1
    36     3     4    1
    37    14    19    1
@<TRIPOS>MOLECULE
*****
 34 37 0 0 0
SMALL
GASTEIGER

@<TRIPOS>ATOM
      1 C          62.1140   88.2085   11.3886 C.2     1  UNL1        0.2320
      2 O          61.7836   89.6229   11.0140 O.2     1  UNL1       -0.2744
      3 N          63.0864   87.9339   12.4973 N.am    1  UNL1       -0.2639
      4 H          63.3032   87.0056   12.7432 H       1  UNL1        0.1567
      5 C          63.7282   89.0736   13.2313 C.ar    1  UNL1        0.1655
      6 N          64.3626   90.2801   12.6052 N.ar    1  UNL1       -0.2239
      7 C          64.8749   91.1591   13.7073 C.ar    1  UNL1        0.0913
      8 C          64.5573   90.4960   15.0147 C.ar    1  UNL1        0.0573
      9 S          63.8486   89.2071   14.7206 S.2     1  UNL1       -0.0508
     10 C          65.5810   92.4710   13.5327 C.ar    1  UNL1        0.0403
     11 C          66.2388   93.2695   14.6188 C.ar    1  UNL1        0.1021
     12 N          66.8175   94.5067   13.9987 N.ar    1  UNL1       -0.2269
     13 C          66.5174   94.4728   12.5294 C.ar    1  UNL1        0.1406
     14 N          66.8412   95.4249   11.4166 N.ar    1  UNL1       -0.3374
     15 C          66.4007   95.1189   10.0157 C.ar    1  UNL1        0.0735
     16 C          65.6365   93.8608    9.7278 C.ar    1  UNL1        0.0186
     17 C          65.3127   92.9086   10.8406 C.ar    1  UNL1        0.0046
     18 C          65.7531   93.2146   12.2414 C.ar    1  UNL1        0.0370
     19 H          67.3428   96.2507   11.6056 H       1  UNL1        0.1674
     20 C          61.4721   87.0687   10.6545 C.3     1  UNL1        0.1117
     21 C          63.1020   83.5454   11.4793 C.ar    1  UNL1        0.0641
     22 C          63.6893   83.1858   10.1468 C.ar    1  UNL1        0.0158
     23 C          63.5376   84.1205    8.9834 C.ar    1  UNL1        0.0010
     24 C          62.7985   85.4149    9.1527 C.ar    1  UNL1       -0.0037
     25 C          62.2112   85.7744   10.4853 C.ar    1  UNL1       -0.0118
     26 C          62.3630   84.8397   11.6486 C.ar    1  UNL1        0.0121
     27 N          63.2537   82.6108   12.6427 N.pl3   1  UNL1       -0.2188
     28 H          63.1595   81.6398   12.5096 H       1  UNL1        0.1734
     29 S          63.5490   83.1553   14.0088 S.O2    1  UNL1        0.0539
     30 O          62.2319   82.6332   14.5016 O.2     1  UNL1       -0.1545
     31 O          64.8660   83.6775   13.5160 O.2     1  UNL1       -0.1545
     32 C          63.8442   83.6999   15.3750 C.3     1  UNL1        0.1724
     33 C          63.2571   85.8924   16.6392 C.3     1  UNL1        0.0019
     34 C          64.0281   85.1757   15.5705 C.3     1  UNL1        0.0273
@<TRIPOS>BOND
     1    33    34    1
     2    34    32    1
     3    32    29    1
     4    29    30    2
     5    29    31    2
     6    29    27    1
     7    27    21    1
     8    21    22   ar
     9    22    23   ar
    10    23    24   ar
    11    24    25   ar
    12    25    20    1
    13    20     1    1
    14     1     2    2
    15     1     3   am
    16     3     5    1
    17     5     6   ar
    18     6     7   ar
    19     7    10    1
    20    10    11   ar
    21    11    12   ar
    22    12    13   ar
    23    13    14   ar
    24    14    15   ar
    25    15    16   ar
    26    16    17   ar
    27    17    18   ar
    28     7     8   ar
    29     8     9   ar
    30    25    26   ar
    31    26    21   ar
    32     9     5   ar
    33    18    10   ar
    34    18    13    1
    35    27    28    1
    36     3     4    1
    37    14    19    1
@<TRIPOS>MOLECULE
*****
 34 37 0 0 0
SMALL
GASTEIGER

@<TRIPOS>ATOM
      1 C          63.8699   90.6055   15.6478 C.2     1  UNL1        0.2320
      2 O          63.6736   90.5533   14.1616 O.2     1  UNL1       -0.2744
      3 N          64.9061   91.5167   16.2359 N.am    1  UNL1       -0.2639
      4 H          65.0349   91.5510   17.2114 H       1  UNL1        0.1567
      5 C          65.7459   92.3758   15.3379 C.ar    1  UNL1        0.1655
      6 N          65.3903   92.8084   13.9464 N.ar    1  UNL1       -0.2239
      7 C          66.5135   93.6532   13.4222 C.ar    1  UNL1        0.0913
      8 C          67.5634   93.7427   14.4898 C.ar    1  UNL1        0.0573
      9 S          67.0890   92.9533   15.6737 S.2     1  UNL1       -0.0508
     10 C          66.5759   94.2956   12.0682 C.ar    1  UNL1        0.0403
     11 C          65.9948   95.6276   11.6967 C.ar    1  UNL1        0.1021
     12 N          66.2902   95.8740   10.2468 N.ar    1  UNL1       -0.2269
     13 C          67.0538   94.6943    9.7223 C.ar    1  UNL1        0.1406
     14 N          67.6111   94.3824    8.3651 N.ar    1  UNL1       -0.3374
     15 C          68.3450   93.0949    8.1336 C.ar    1  UNL1        0.0735
     16 C          68.5216   92.1193    9.2592 C.ar    1  UNL1        0.0186
     17 C          67.9643   92.4313   10.6164 C.ar    1  UNL1        0.0046
     18 C          67.2304   93.7188   10.8480 C.ar    1  UNL1        0.0370
     19 H          67.4952   95.0226    7.6263 H       1  UNL1        0.1674
     20 C          63.0300   89.7463   16.5459 C.3     1  UNL1        0.1117
     21 C          63.9406   86.1024   15.2643 C.ar    1  UNL1        0.0641
     22 C          63.4450   85.2676   16.4078 C.ar    1  UNL1        0.0158
     23 C          62.8111   85.9257   17.5973 C.ar    1  UNL1        0.0010
     24 C          62.6727   87.4187   17.6434 C.ar    1  UNL1       -0.0037
     25 C          63.1684   88.2535   16.4998 C.ar    1  UNL1       -0.0118
     26 C          63.8023   87.5952   15.3103 C.ar    1  UNL1        0.0121
     27 N          64.5746   85.4442   14.0748 N.pl3   1  UNL1       -0.2188
     28 H          65.5104   85.6434   13.8426 H       1  UNL1        0.1734
     29 S          63.7829   84.4826   13.2391 S.O2    1  UNL1        0.0539
     30 O          62.8804   85.6005   12.8078 O.2     1  UNL1       -0.1545
     31 O          64.6853   83.3647   13.6703 O.2     1  UNL1       -0.1545
     32 C          62.9910   83.5210   12.4033 C.3     1  UNL1        0.1724
     33 C          64.3059   83.1074   10.2011 C.3     1  UNL1        0.0019
     34 C          63.6956   82.5842   11.4675 C.3     1  UNL1        0.0273
@<TRIPOS>BOND
     1    33    34    1
     2    34    32    1
     3    32    29    1
     4    29    30    2
     5    29    31    2
     6    29    27    1
     7    27    21    1
     8    21    22   ar
     9    22    23   ar
    10    23    24   ar
    11    24    25   ar
    12    25    20    1
    13    20     1    1
    14     1     2    2
    15     1     3   am
    16     3     5    1
    17     5     6   ar
    18     6     7   ar
    19     7    10    1
    20    10    11   ar
    21    11    12   ar
    22    12    13   ar
    23    13    14   ar
    24    14    15   ar
    25    15    16   ar
    26    16    17   ar
    27    17    18   ar
    28     7     8   ar
    29     8     9   ar
    30    25    26   ar
    31    26    21   ar
    32     9     5   ar
    33    18    10   ar
    34    18    13    1
    35    27    28    1
    36     3     4    1
    37    14    19    1
@<TRIPOS>MOLECULE
*****
 34 37 0 0 0
SMALL
GASTEIGER

@<TRIPOS>ATOM
      1 C          62.2006   86.4424   10.5507 C.2     1  UNL1        0.2320
      2 O          62.7344   86.9180    9.2321 O.2     1  UNL1       -0.2744
      3 N          62.1287   87.3855   11.7149 N.am    1  UNL1       -0.2639
      4 H          61.7784   87.0733   12.5804 H       1  UNL1        0.1567
      5 C          62.5906   88.8041   11.5606 C.ar    1  UNL1        0.1655
      6 N          63.6276   89.4901   12.3997 N.ar    1  UNL1       -0.2239
      7 C          63.7745   90.8959   11.8977 C.ar    1  UNL1        0.0913
      8 C          62.8282   91.0789   10.7482 C.ar    1  UNL1        0.0573
      9 S          62.0966   89.7861   10.5399 S.2     1  UNL1       -0.0508
     10 C          64.7043   91.9362   12.4484 C.ar    1  UNL1        0.0403
     11 C          65.1797   92.0312   13.8679 C.ar    1  UNL1        0.1021
     12 N          66.0912   93.2178   13.9730 N.ar    1  UNL1       -0.2269
     13 C          66.1791   93.8562   12.6184 C.ar    1  UNL1        0.1406
     14 N          66.9289   95.0565   12.1213 N.ar    1  UNL1       -0.3374
     15 C          66.8216   95.4646   10.6820 C.ar    1  UNL1        0.0735
     16 C          65.9645   94.6725    9.7397 C.ar    1  UNL1        0.0186
     17 C          65.2146   93.4723   10.2368 C.ar    1  UNL1        0.0046
     18 C          65.3220   93.0641   11.6762 C.ar    1  UNL1        0.0370
     19 H          67.4915   95.5763   12.7398 H       1  UNL1        0.1674
     20 C          61.7388   85.0236   10.7052 C.3     1  UNL1        0.1117
     21 C          63.5893   83.4078   13.8220 C.ar    1  UNL1        0.0641
     22 C          64.1183   82.1430   13.2132 C.ar    1  UNL1        0.0158
     23 C          63.8541   81.8385   11.7684 C.ar    1  UNL1        0.0010
     24 C          63.0609   82.7987   10.9324 C.ar    1  UNL1       -0.0037
     25 C          62.5319   84.0635   11.5412 C.ar    1  UNL1       -0.0118
     26 C          62.7961   84.3680   12.9861 C.ar    1  UNL1        0.0121
     27 N          63.8534   83.7123   15.2668 N.pl3   1  UNL1       -0.2188
     28 H          64.1519   82.9972   15.8741 H       1  UNL1        0.1734
     29 S          63.6629   85.1065   15.7864 S.O2    1  UNL1        0.0539
     30 O          62.3346   84.7110   16.3603 O.2     1  UNL1       -0.1545
     31 O          64.9911   85.5020   15.2126 O.2     1  UNL1       -0.1545
     32 C          63.4723   86.5007   16.3061 C.3     1  UNL1        0.1724
     33 C          63.5441   89.0645   15.8918 C.3     1  UNL1        0.0019
     34 C          63.9436   87.6733   15.4982 C.3     1  UNL1        0.0273
@<TRIPOS>BOND
     1    33    34    1
     2    34    32    1
     3    32    29    1
     4    29    30    2
     5    29    31    2
     6    29    27    1
     7    27    21    1
     8    21    22   ar
     9    22    23   ar
    10    23    24   ar
    11    24    25   ar
    12    25    20    1
    13    20     1    1
    14     1     2    2
    15     1     3   am
    16     3     5    1
    17     5     6   ar
    18     6     7   ar
    19     7    10    1
    20    10    11   ar
    21    11    12   ar
    22    12    13   ar
    23    13    14   ar
    24    14    15   ar
    25    15    16   ar
    26    16    17   ar
    27    17    18   ar
    28     7     8   ar
    29     8     9   ar
    30    25    26   ar
    31    26    21   ar
    32     9     5   ar
    33    18    10   ar
    34    18    13    1
    35    27    28    1
    36     3     4    1
    37    14    19    1
@<TRIPOS>MOLECULE
*****
 34 37 0 0 0
SMALL
GASTEIGER

@<TRIPOS>ATOM
      1 C          63.0570   85.9629   16.3857 C.2     1  UNL1        0.2320
      2 O          62.6814   86.6341   17.6735 O.2     1  UNL1       -0.2744
      3 N          63.6226   86.7711   15.2558 N.am    1  UNL1       -0.2639
      4 H          63.8692   86.3305   14.4106 H       1  UNL1        0.1567
      5 C          63.8127   88.2505   15.4136 C.ar    1  UNL1        0.1655
      6 N          64.7784   89.1025   14.6444 N.ar    1  UNL1       -0.2239
      7 C          64.6331   90.5163   15.1237 C.ar    1  UNL1        0.0913
      8 C          63.5775   90.5383   16.1892 C.ar    1  UNL1        0.0573
      9 S          63.0705   89.1380   16.3683 S.2     1  UNL1       -0.0508
     10 C          65.4073   91.7004   14.6251 C.ar    1  UNL1        0.0403
     11 C          66.2946   92.5846   15.4503 C.ar    1  UNL1        0.1021
     12 N          66.8658   93.6388   14.5489 N.ar    1  UNL1       -0.2269
     13 C          66.3316   93.4060   13.1667 C.ar    1  UNL1        0.1406
     14 N          66.5496   94.1302   11.8713 N.ar    1  UNL1       -0.3374
     15 C          65.8661   93.6563   10.6231 C.ar    1  UNL1        0.0735
     16 C          64.9647   92.4583   10.6701 C.ar    1  UNL1        0.0186
     17 C          64.7468   91.7341   11.9655 C.ar    1  UNL1        0.0046
     18 C          65.4302   92.2080   13.2138 C.ar    1  UNL1        0.0370
     19 H          67.1412   94.9165   11.8404 H       1  UNL1        0.1674
     20 C          62.8669   84.4833   16.2279 C.3     1  UNL1        0.1117
     21 C          63.2348   84.0311   12.3023 C.ar    1  UNL1        0.0641
     22 C          62.6301   82.6711   12.1157 C.ar    1  UNL1        0.0158
     23 C          62.1043   81.9152   13.2998 C.ar    1  UNL1        0.0010
     24 C          62.1833   82.5193   14.6706 C.ar    1  UNL1       -0.0037
     25 C          62.7880   83.8793   14.8572 C.ar    1  UNL1       -0.0118
     26 C          63.3137   84.6352   13.6730 C.ar    1  UNL1        0.0121
     27 N          63.7606   84.7870   11.1182 N.pl3   1  UNL1       -0.2188
     28 H          64.6882   85.1168   11.1170 H       1  UNL1        0.1734
     29 S          62.8730   85.0406    9.9359 S.O2    1  UNL1        0.0539
     30 O          62.2103   86.1655   10.6747 O.2     1  UNL1       -0.1545
     31 O          63.5355   83.9158    9.1971 O.2     1  UNL1       -0.1545
     32 C          61.9853   85.2943    8.7536 C.3     1  UNL1        0.1724
     33 C          61.6416   84.5548    6.2869 C.3     1  UNL1        0.0019
     34 C          62.5201   85.1205    7.3630 C.3     1  UNL1        0.0273
@<TRIPOS>BOND
     1    33    34    1
     2    34    32    1
     3    32    29    1
     4    29    30    2
     5    29    31    2
     6    29    27    1
     7    27    21    1
     8    21    22   ar
     9    22    23   ar
    10    23    24   ar
    11    24    25   ar
    12    25    20    1
    13    20     1    1
    14     1     2    2
    15     1     3   am
    16     3     5    1
    17     5     6   ar
    18     6     7   ar
    19     7    10    1
    20    10    11   ar
    21    11    12   ar
    22    12    13   ar
    23    13    14   ar
    24    14    15   ar
    25    15    16   ar
    26    16    17   ar
    27    17    18   ar
    28     7     8   ar
    29     8     9   ar
    30    25    26   ar
    31    26    21   ar
    32     9     5   ar
    33    18    10   ar
    34    18    13    1
    35    27    28    1
    36     3     4    1
    37    14    19    1
