@<TRIPOS>MOLECULE
*****
 40 43 0 0 0
SMALL
GASTEIGER

@<TRIPOS>ATOM
      1 N          62.7983   87.9291   12.4410 N.am    1  UNL1       -0.2770
      2 C          63.3499   88.1801   13.8130 C.2     1  UNL1        0.2253
      3 O          63.3612   89.5712   14.3740 O.2     1  UNL1       -0.2749
      4 C          63.8904   87.0399   14.6241 C.3     1  UNL1        0.0767
      5 C          64.5094   86.2928   15.7681 C.3     1  UNL1        0.0096
      6 C          63.8791   85.6488   14.0632 C.3     1  UNL1        0.0154
      7 C          63.3275   85.3979   12.6911 C.3     1  UNL1        0.0452
      8 C          62.7870   86.5380   11.8800 C.3     1  UNL1        0.1018
      9 C          63.3162   84.0068   12.1301 C.ar    1  UNL1       -0.0197
     10 C          64.0011   83.7179   10.8273 C.ar    1  UNL1       -0.0042
     11 C          63.9899   82.3268   10.2663 C.ar    1  UNL1        0.0005
     12 C          63.2938   81.2246   11.0082 C.ar    1  UNL1        0.0114
     13 C          62.6089   81.5134   12.3110 C.ar    1  UNL1        0.0574
     14 CL         61.9128   80.4111   13.0530 Cl      1  UNL1       -0.0823
     15 C          62.6202   82.9045   12.8720 C.ar    1  UNL1        0.0072
     16 C          62.2354   86.2871   10.5078 C.ar    1  UNL1       -0.0039
     17 C          63.1492   85.8550    9.3996 C.ar    1  UNL1       -0.0018
     18 C          62.5975   85.6041    8.0275 C.ar    1  UNL1        0.0111
     19 C          61.1320   85.7853    7.7636 C.ar    1  UNL1        0.0577
     20 CL         60.5804   85.5344    6.3915 Cl      1  UNL1       -0.0822
     21 C          60.2182   86.2174    8.8718 C.ar    1  UNL1        0.0111
     22 C          60.7699   86.4683   10.2440 C.ar    1  UNL1       -0.0018
     23 C          62.2578   89.0693   11.6298 C.3     1  UNL1        0.0991
     24 C          60.8294   89.4964   11.7948 C.3     1  UNL1        0.0200
     25 C          59.7249   90.4723   11.5165 C.3     1  UNL1        0.0018
     26 C          59.4599   89.2600   12.3591 C.3     1  UNL1        0.0018
     27 C          63.1458   89.7824   10.6536 C.3     1  UNL1        0.1703
     28 S          63.9335   90.9809   11.0931 S.O2    1  UNL1       -0.0115
     29 O          63.4070   91.7565    9.9221 O.2     1  UNL1       -0.1730
     30 O          64.4599   90.2054   12.2641 O.2     1  UNL1       -0.1730
     31 C          64.7711   91.6343   12.9292 C.3     1  UNL1        0.0236
     32 C          64.7212   92.1794   11.5327 C.3     1  UNL1        0.1108
     33 C          64.6713   92.7244   10.1361 C.3     1  UNL1        0.0236
     34 C          65.5089   93.3778   11.9722 C.3     1  UNL1        0.0236
     35 C          64.1166   88.1715   15.5824 C.3     1  UNL1        0.0790
     36 C          63.1139   88.4518   16.6623 C.2     1  UNL1        0.1874
     37 O          62.7504   89.8676   16.9991 O.2     1  UNL1       -0.2901
     38 C          62.4748   87.3162   17.4054 C.2     1  UNL1        0.1077
     39 O          63.0392   86.8687   18.7210 O.co2   1  UNL1       -0.5417
     40 O          61.2712   86.6283   16.8326 O.co2   1  UNL1       -0.5417
@<TRIPOS>UNITY_ATOM_ATTR
39 1
charge -1
@<TRIPOS>BOND
     1    31    32    1
     2    32    33    1
     3    32    34    1
     4    32    28    1
     5    28    29    2
     6    28    30    2
     7    28    27    1
     8    23    27    1
     9    23    24    1
    10    24    25    1
    11    25    26    1
    12    23     1    1
    13     1     2   am
    14     2     3    2
    15     2     4    1
    16     4     5    1
    17     4    35    1
    18    35    36    1
    19    36    37    2
    20    36    38    1
    21    38    39   ar
    22    38    40   ar
    23     4     6    1
    24     6     7    1
    25     7     9    1
    26     9    10   ar
    27    10    11   ar
    28    11    12   ar
    29    12    13   ar
    30    13    14    1
    31    13    15   ar
    32     7     8    1
    33     8    16    1
    34    16    17   ar
    35    17    18   ar
    36    18    19   ar
    37    19    20    1
    38    19    21   ar
    39    21    22   ar
    40    26    24    1
    41     8     1    1
    42    22    16   ar
    43    15     9   ar
@<TRIPOS>MOLECULE
*****
 40 43 0 0 0
SMALL
GASTEIGER

@<TRIPOS>ATOM
      1 N          63.4171   85.6501   12.8448 N.am    1  UNL1       -0.2770
      2 C          64.0147   84.2918   13.0631 C.2     1  UNL1        0.2253
      3 O          64.7396   83.9878   14.3407 O.2     1  UNL1       -0.2749
      4 C          63.8873   83.2374   12.0039 C.3     1  UNL1        0.0767
      5 C          64.0288   81.9183   11.3039 C.3     1  UNL1        0.0096
      6 C          63.1624   83.5413   10.7264 C.3     1  UNL1        0.0154
      7 C          62.5648   84.8997   10.5081 C.3     1  UNL1        0.0452
      8 C          62.6922   85.9541   11.5673 C.3     1  UNL1        0.1018
      9 C          61.8399   85.2036    9.2306 C.ar    1  UNL1       -0.0197
     10 C          60.6043   86.0538    9.2534 C.ar    1  UNL1       -0.0042
     11 C          59.8794   86.3577    7.9758 C.ar    1  UNL1        0.0005
     12 C          60.3900   85.8115    6.6755 C.ar    1  UNL1        0.0114
     13 C          61.6256   84.9614    6.6527 C.ar    1  UNL1        0.0574
     14 CL         62.1363   84.4152    5.3523 Cl      1  UNL1       -0.0823
     15 C          62.3505   84.6575    7.9302 C.ar    1  UNL1        0.0072
     16 C          62.0946   87.3125   11.3490 C.ar    1  UNL1       -0.0039
     17 C          60.7080   87.6093   11.8383 C.ar    1  UNL1       -0.0018
     18 C          60.1104   88.9677   11.6200 C.ar    1  UNL1        0.0111
     19 C          60.8993   90.0293   10.9125 C.ar    1  UNL1        0.0577
     20 CL         60.3017   91.3877   10.6942 Cl      1  UNL1       -0.0822
     21 C          62.2859   89.7325   10.4232 C.ar    1  UNL1        0.0111
     22 C          62.8835   88.3741   10.6415 C.ar    1  UNL1       -0.0018
     23 C          63.5444   86.7046   13.9041 C.3     1  UNL1        0.0991
     24 C          63.2663   86.3644   15.3383 C.3     1  UNL1        0.0200
     25 C          63.7277   86.2603   16.7617 C.3     1  UNL1        0.0018
     26 C          62.3231   85.8792   16.3989 C.3     1  UNL1        0.0018
     27 C          63.9499   88.0992   13.5291 C.3     1  UNL1        0.1703
     28 S          63.9380   89.1870   14.5619 S.O2    1  UNL1       -0.0115
     29 O          65.3335   88.8163   14.9684 O.2     1  UNL1       -0.1730
     30 O          62.5426   89.5578   14.1553 O.2     1  UNL1       -0.1730
     31 C          62.8811   89.5280   16.3692 C.3     1  UNL1        0.0236
     32 C          63.9262   90.2748   15.5946 C.3     1  UNL1        0.1108
     33 C          64.9712   91.0216   14.8200 C.3     1  UNL1        0.0236
     34 C          63.9143   91.3626   16.6273 C.3     1  UNL1        0.0236
     35 C          64.6614   82.4752   13.0383 C.3     1  UNL1        0.0790
     36 C          63.9936   81.3847   13.8223 C.2     1  UNL1        0.1874
     37 O          64.8209   80.3262   14.4896 O.2     1  UNL1       -0.2901
     38 C          62.4984   81.3525   13.9389 C.2     1  UNL1        0.1077
     39 O          61.7744   82.4797   14.6135 O.co2   1  UNL1       -0.5417
     40 O          61.7275   80.1931   13.3808 O.co2   1  UNL1       -0.5417
@<TRIPOS>UNITY_ATOM_ATTR
39 1
charge -1
@<TRIPOS>BOND
     1    31    32    1
     2    32    33    1
     3    32    34    1
     4    32    28    1
     5    28    29    2
     6    28    30    2
     7    28    27    1
     8    23    27    1
     9    23    24    1
    10    24    25    1
    11    25    26    1
    12    23     1    1
    13     1     2   am
    14     2     3    2
    15     2     4    1
    16     4     5    1
    17     4    35    1
    18    35    36    1
    19    36    37    2
    20    36    38    1
    21    38    39   ar
    22    38    40   ar
    23     4     6    1
    24     6     7    1
    25     7     9    1
    26     9    10   ar
    27    10    11   ar
    28    11    12   ar
    29    12    13   ar
    30    13    14    1
    31    13    15   ar
    32     7     8    1
    33     8    16    1
    34    16    17   ar
    35    17    18   ar
    36    18    19   ar
    37    19    20    1
    38    19    21   ar
    39    21    22   ar
    40    26    24    1
    41     8     1    1
    42    22    16   ar
    43    15     9   ar
@<TRIPOS>MOLECULE
*****
 40 43 0 0 0
SMALL
GASTEIGER

@<TRIPOS>ATOM
      1 N          59.0158   93.6554   -1.3683 N.am    1  UNL1       -0.2770
      2 C          59.2894   93.0171   -0.0388 C.2     1  UNL1        0.2253
      3 O          58.1490   92.5873    0.8358 O.2     1  UNL1       -0.2749
      4 C          60.7034   92.8086    0.4162 C.3     1  UNL1        0.0767
      5 C          61.8610   92.4018    1.2789 C.3     1  UNL1        0.0096
      6 C          61.8438   93.2384   -0.4583 C.3     1  UNL1        0.0154
      7 C          61.5701   93.8767   -1.7879 C.3     1  UNL1        0.0452
      8 C          60.1561   94.0852   -2.2428 C.3     1  UNL1        0.1018
      9 C          62.7105   94.3065   -2.6624 C.ar    1  UNL1       -0.0197
     10 C          63.2220   95.7147   -2.5897 C.ar    1  UNL1       -0.0042
     11 C          64.3624   96.1445   -3.4642 C.ar    1  UNL1        0.0005
     12 C          64.9913   95.1661   -4.4115 C.ar    1  UNL1        0.0114
     13 C          64.4798   93.7579   -4.4841 C.ar    1  UNL1        0.0574
     14 CL         65.1086   92.7795   -5.4314 Cl      1  UNL1       -0.0823
     15 C          63.3394   93.3281   -3.6096 C.ar    1  UNL1        0.0072
     16 C          59.8824   94.7236   -3.5724 C.ar    1  UNL1       -0.0039
     17 C          59.5931   93.8678   -4.7698 C.ar    1  UNL1       -0.0018
     18 C          59.3194   94.5060   -6.0994 C.ar    1  UNL1        0.0111
     19 C          59.3350   96.0002   -6.2315 C.ar    1  UNL1        0.0577
     20 CL         59.0614   96.6384   -7.5610 Cl      1  UNL1       -0.0822
     21 C          59.6244   96.8560   -5.0340 C.ar    1  UNL1        0.0111
     22 C          59.8981   96.2176   -3.7045 C.ar    1  UNL1       -0.0018
     23 C          57.6017   93.8640   -1.8233 C.3     1  UNL1        0.0991
     24 C          56.8463   92.7377   -2.4644 C.3     1  UNL1        0.0200
     25 C          55.9977   91.5070   -2.3418 C.3     1  UNL1        0.0018
     26 C          56.3866   92.0178   -3.6975 C.3     1  UNL1        0.0018
     27 C          56.9430   95.1987   -1.6372 C.3     1  UNL1        0.1703
     28 S          55.7111   95.5429   -2.4208 S.O2    1  UNL1       -0.0115
     29 O          54.8874   95.4391   -1.1715 O.2     1  UNL1       -0.1730
     30 O          56.5348   95.6467   -3.6701 O.2     1  UNL1       -0.1730
     31 C          53.6817   95.9237   -1.9345 C.3     1  UNL1        0.0236
     32 C          54.4793   95.8871   -3.2044 C.3     1  UNL1        0.1108
     33 C          55.2768   95.8505   -4.4742 C.3     1  UNL1        0.0236
     34 C          53.2474   96.2313   -3.9880 C.3     1  UNL1        0.0236
     35 C          59.9651   92.2375    1.5904 C.3     1  UNL1        0.0790
     36 C          59.9150   92.9937    2.8849 C.2     1  UNL1        0.1874
     37 O          60.1308   94.4781    2.8951 O.2     1  UNL1       -0.2901
     38 C          59.6490   92.2655    4.1690 C.2     1  UNL1        0.1077
     39 O          60.7328   91.4465    4.8051 O.co2   1  UNL1       -0.5417
     40 O          58.2993   92.3564    4.8170 O.co2   1  UNL1       -0.5417
@<TRIPOS>UNITY_ATOM_ATTR
39 1
charge -1
@<TRIPOS>BOND
     1    31    32    1
     2    32    33    1
     3    32    34    1
     4    32    28    1
     5    28    29    2
     6    28    30    2
     7    28    27    1
     8    23    27    1
     9    23    24    1
    10    24    25    1
    11    25    26    1
    12    23     1    1
    13     1     2   am
    14     2     3    2
    15     2     4    1
    16     4     5    1
    17     4    35    1
    18    35    36    1
    19    36    37    2
    20    36    38    1
    21    38    39   ar
    22    38    40   ar
    23     4     6    1
    24     6     7    1
    25     7     9    1
    26     9    10   ar
    27    10    11   ar
    28    11    12   ar
    29    12    13   ar
    30    13    14    1
    31    13    15   ar
    32     7     8    1
    33     8    16    1
    34    16    17   ar
    35    17    18   ar
    36    18    19   ar
    37    19    20    1
    38    19    21   ar
    39    21    22   ar
    40    26    24    1
    41     8     1    1
    42    22    16   ar
    43    15     9   ar
@<TRIPOS>MOLECULE
*****
 40 43 0 0 0
SMALL
GASTEIGER

@<TRIPOS>ATOM
      1 N          63.5355   86.3026   13.3990 N.am    1  UNL1       -0.2770
      2 C          63.4580   87.7444   13.8055 C.2     1  UNL1        0.2253
      3 O          63.9240   88.1657   15.1676 O.2     1  UNL1       -0.2749
      4 C          62.9144   88.7648   12.8499 C.3     1  UNL1        0.0767
      5 C          62.4803   90.0916   12.3012 C.3     1  UNL1        0.0096
      6 C          62.4484   88.3435   11.4878 C.3     1  UNL1        0.0154
      7 C          62.5259   86.9017   11.0813 C.3     1  UNL1        0.0452
      8 C          63.0695   85.8813   12.0369 C.3     1  UNL1        0.1018
      9 C          62.0599   86.4804    9.7192 C.ar    1  UNL1       -0.0197
     10 C          62.9889   85.7377    8.8052 C.ar    1  UNL1       -0.0042
     11 C          62.5228   85.3164    7.4431 C.ar    1  UNL1        0.0005
     12 C          61.1279   85.6377    6.9950 C.ar    1  UNL1        0.0114
     13 C          60.1990   86.3804    7.9091 C.ar    1  UNL1        0.0574
     14 CL         58.8039   86.7018    7.4610 Cl      1  UNL1       -0.0823
     15 C          60.6650   86.8017    9.2712 C.ar    1  UNL1        0.0072
     16 C          63.1471   84.4394   11.6305 C.ar    1  UNL1       -0.0039
     17 C          64.4811   83.8029   11.3752 C.ar    1  UNL1       -0.0018
     18 C          64.5587   82.3612   10.9687 C.ar    1  UNL1        0.0111
     19 C          63.3023   81.5558   10.8175 C.ar    1  UNL1        0.0577
     20 CL         63.3799   80.1141   10.4111 Cl      1  UNL1       -0.0822
     21 C          61.9682   82.1923   11.0728 C.ar    1  UNL1        0.0111
     22 C          61.8906   83.6342   11.4793 C.ar    1  UNL1       -0.0018
     23 C          64.0791   85.2821   14.3547 C.3     1  UNL1        0.0991
     24 C          65.5615   85.1295   14.5258 C.3     1  UNL1        0.0200
     25 C          66.8382   84.4084   14.2098 C.3     1  UNL1        0.0018
     26 C          66.8523   85.5865   15.1382 C.3     1  UNL1        0.0018
     27 C          63.1403   84.4142   15.1391 C.3     1  UNL1        0.1703
     28 S          62.9393   82.9805   14.7464 S.O2    1  UNL1       -0.0115
     29 O          64.3627   82.6806   15.1123 O.2     1  UNL1       -0.1730
     30 O          61.5159   83.2804   14.3804 O.2     1  UNL1       -0.1730
     31 C          64.2240   81.3639   14.2608 C.3     1  UNL1        0.0236
     32 C          62.7382   81.5468   14.3537 C.3     1  UNL1        0.1108
     33 C          61.2523   81.7298   14.4465 C.3     1  UNL1        0.0236
     34 C          62.5371   80.1132   13.9610 C.3     1  UNL1        0.0236
     35 C          63.2296   89.6470   14.0214 C.3     1  UNL1        0.0790
     36 C          64.2049   90.7764   13.8689 C.2     1  UNL1        0.1874
     37 O          64.8860   91.0065   12.5524 O.2     1  UNL1       -0.2901
     38 C          64.4990   91.6757   15.0329 C.2     1  UNL1        0.1077
     39 O          63.6538   91.6019   16.2699 O.co2   1  UNL1       -0.5417
     40 O          65.6382   92.6487   14.9597 O.co2   1  UNL1       -0.5417
@<TRIPOS>UNITY_ATOM_ATTR
39 1
charge -1
@<TRIPOS>BOND
     1    31    32    1
     2    32    33    1
     3    32    34    1
     4    32    28    1
     5    28    29    2
     6    28    30    2
     7    28    27    1
     8    23    27    1
     9    23    24    1
    10    24    25    1
    11    25    26    1
    12    23     1    1
    13     1     2   am
    14     2     3    2
    15     2     4    1
    16     4     5    1
    17     4    35    1
    18    35    36    1
    19    36    37    2
    20    36    38    1
    21    38    39   ar
    22    38    40   ar
    23     4     6    1
    24     6     7    1
    25     7     9    1
    26     9    10   ar
    27    10    11   ar
    28    11    12   ar
    29    12    13   ar
    30    13    14    1
    31    13    15   ar
    32     7     8    1
    33     8    16    1
    34    16    17   ar
    35    17    18   ar
    36    18    19   ar
    37    19    20    1
    38    19    21   ar
    39    21    22   ar
    40    26    24    1
    41     8     1    1
    42    22    16   ar
    43    15     9   ar
@<TRIPOS>MOLECULE
*****
 40 43 0 0 0
SMALL
GASTEIGER

@<TRIPOS>ATOM
      1 N          62.2584   86.9619   11.3653 N.am    1  UNL1       -0.2770
      2 C          62.0596   86.8764    9.8810 C.2     1  UNL1        0.2253
      3 O          61.6828   88.1022    9.1029 O.2     1  UNL1       -0.2749
      4 C          62.2376   85.5650    9.1748 C.3     1  UNL1        0.0767
      5 C          62.2911   84.5579    8.0645 C.3     1  UNL1        0.0096
      6 C          62.6143   84.3392    9.9529 C.3     1  UNL1        0.0154
      7 C          62.8131   84.4247   11.4372 C.3     1  UNL1        0.0452
      8 C          62.6351   85.7360   12.1434 C.3     1  UNL1        0.1018
      9 C          63.1899   83.1989   12.2153 C.ar    1  UNL1       -0.0197
     10 C          64.6151   82.9822   12.6296 C.ar    1  UNL1       -0.0042
     11 C          64.9918   81.7564   13.4077 C.ar    1  UNL1        0.0005
     12 C          63.9434   80.7473   13.7715 C.ar    1  UNL1        0.0114
     13 C          62.5182   80.9640   13.3571 C.ar    1  UNL1        0.0574
     14 CL         61.4696   79.9548   13.7208 Cl      1  UNL1       -0.0823
     15 C          62.1414   82.1898   12.5790 C.ar    1  UNL1        0.0072
     16 C          62.8339   85.8216   13.6277 C.ar    1  UNL1       -0.0039
     17 C          61.8391   85.1892   14.5553 C.ar    1  UNL1       -0.0018
     18 C          62.0379   85.2747   16.0396 C.ar    1  UNL1        0.0111
     19 C          63.2315   85.9927   16.5964 C.ar    1  UNL1        0.0577
     20 CL         63.4302   86.0782   18.0806 Cl      1  UNL1       -0.0822
     21 C          64.2263   86.6251   15.6688 C.ar    1  UNL1        0.0111
     22 C          64.0275   86.5395   14.1844 C.ar    1  UNL1       -0.0018
     23 C          62.0804   88.2732   12.0715 C.3     1  UNL1        0.0991
     24 C          60.7510   88.9673   12.0407 C.3     1  UNL1        0.0200
     25 C          59.8995   90.1245   11.6096 C.3     1  UNL1        0.0018
     26 C          59.3001   89.0123   12.4182 C.3     1  UNL1        0.0018
     27 C          63.2318   88.8904   12.8086 C.3     1  UNL1        0.1703
     28 S          63.7938   90.2055   12.3559 S.O2    1  UNL1       -0.0115
     29 O          63.3600   89.9074   10.9513 O.2     1  UNL1       -0.1730
     30 O          64.2275   90.5036   13.7605 O.2     1  UNL1       -0.1730
     31 C          63.6126   91.3918   10.6068 C.3     1  UNL1        0.0236
     32 C          64.3557   91.5205   11.9033 C.3     1  UNL1        0.1108
     33 C          65.0989   91.6492   13.1999 C.3     1  UNL1        0.0236
     34 C          64.9177   92.8355   11.4507 C.3     1  UNL1        0.0236
     35 C          61.8794   86.4410    8.0111 C.3     1  UNL1        0.0790
     36 C          60.6153   86.1893    7.2438 C.2     1  UNL1        0.1874
     37 O          60.5233   85.0155    6.3143 O.2     1  UNL1       -0.2901
     38 C          59.4433   87.1113    7.4060 C.2     1  UNL1        0.1077
     39 O          58.1935   86.6246    8.0776 O.co2   1  UNL1       -0.5417
     40 O          59.5211   88.5199    6.8965 O.co2   1  UNL1       -0.5417
@<TRIPOS>UNITY_ATOM_ATTR
39 1
charge -1
@<TRIPOS>BOND
     1    31    32    1
     2    32    33    1
     3    32    34    1
     4    32    28    1
     5    28    29    2
     6    28    30    2
     7    28    27    1
     8    23    27    1
     9    23    24    1
    10    24    25    1
    11    25    26    1
    12    23     1    1
    13     1     2   am
    14     2     3    2
    15     2     4    1
    16     4     5    1
    17     4    35    1
    18    35    36    1
    19    36    37    2
    20    36    38    1
    21    38    39   ar
    22    38    40   ar
    23     4     6    1
    24     6     7    1
    25     7     9    1
    26     9    10   ar
    27    10    11   ar
    28    11    12   ar
    29    12    13   ar
    30    13    14    1
    31    13    15   ar
    32     7     8    1
    33     8    16    1
    34    16    17   ar
    35    17    18   ar
    36    18    19   ar
    37    19    20    1
    38    19    21   ar
    39    21    22   ar
    40    26    24    1
    41     8     1    1
    42    22    16   ar
    43    15     9   ar
@<TRIPOS>MOLECULE
*****
 40 43 0 0 0
SMALL
GASTEIGER

@<TRIPOS>ATOM
      1 N          61.6827   94.4070   -1.5716 N.am    1  UNL1       -0.2770
      2 C          62.0946   94.1405   -0.1541 C.2     1  UNL1        0.2253
      3 O          63.5249   93.8190    0.1636 O.2     1  UNL1       -0.2749
      4 C          61.0761   94.1955    0.9458 C.3     1  UNL1        0.0767
      5 C          60.4828   94.1310    2.3219 C.3     1  UNL1        0.0096
      6 C          59.6458   94.5170    0.6281 C.3     1  UNL1        0.0154
      7 C          59.2340   94.7835   -0.7894 C.3     1  UNL1        0.0452
      8 C          60.2524   94.7285   -1.8892 C.3     1  UNL1        0.1018
      9 C          57.8037   95.1050   -1.1070 C.ar    1  UNL1       -0.0197
     10 C          57.3439   96.5325   -1.1335 C.ar    1  UNL1       -0.0042
     11 C          55.9136   96.8540   -1.4511 C.ar    1  UNL1        0.0005
     12 C          54.9431   95.7480   -1.7423 C.ar    1  UNL1        0.0114
     13 C          55.4029   94.3205   -1.7158 C.ar    1  UNL1        0.0574
     14 CL         54.4324   93.2144   -2.0069 Cl      1  UNL1       -0.0823
     15 C          56.8332   93.9990   -1.3981 C.ar    1  UNL1        0.0072
     16 C          59.8406   94.9950   -3.3068 C.ar    1  UNL1       -0.0039
     17 C          60.0623   96.3504   -3.9100 C.ar    1  UNL1       -0.0018
     18 C          59.6505   96.6170   -5.3274 C.ar    1  UNL1        0.0111
     19 C          59.0170   95.5281   -6.1418 C.ar    1  UNL1        0.0577
     20 CL         58.6052   95.7947   -7.5593 Cl      1  UNL1       -0.0822
     21 C          58.7953   94.1727   -5.5387 C.ar    1  UNL1        0.0111
     22 C          59.2071   93.9062   -4.1211 C.ar    1  UNL1       -0.0018
     23 C          62.7012   94.3520   -2.6715 C.3     1  UNL1        0.0991
     24 C          63.6605   95.4891   -2.8628 C.3     1  UNL1        0.0200
     25 C          64.1686   96.8418   -2.4602 C.3     1  UNL1        0.0018
     26 C          64.8141   96.1060   -3.5968 C.3     1  UNL1        0.0018
     27 C          62.7603   93.1600   -3.5800 C.3     1  UNL1        0.1703
     28 S          63.5162   93.2393   -4.8733 S.O2    1  UNL1       -0.0115
     29 O          62.3911   94.0218   -5.4830 O.2     1  UNL1       -0.1730
     30 O          64.6413   92.4569   -4.2635 O.2     1  UNL1       -0.1730
     31 C          63.0424   93.8337   -6.8537 C.3     1  UNL1        0.0236
     32 C          64.2721   93.3186   -6.1664 C.3     1  UNL1        0.1108
     33 C          65.5019   92.8035   -5.4791 C.3     1  UNL1        0.0236
     34 C          65.0281   93.3979   -7.4595 C.3     1  UNL1        0.0236
     35 C          62.3003   93.8516    1.7414 C.3     1  UNL1        0.0790
     36 C          62.3310   92.5998    2.5674 C.2     1  UNL1        0.1874
     37 O          61.1443   92.2245    3.4046 O.2     1  UNL1       -0.2901
     38 C          63.5483   91.7234    2.5561 C.2     1  UNL1        0.1077
     39 O          63.5520   90.4351    3.3242 O.co2   1  UNL1       -0.5417
     40 O          64.7618   92.1356    1.7767 O.co2   1  UNL1       -0.5417
@<TRIPOS>UNITY_ATOM_ATTR
39 1
charge -1
@<TRIPOS>BOND
     1    31    32    1
     2    32    33    1
     3    32    34    1
     4    32    28    1
     5    28    29    2
     6    28    30    2
     7    28    27    1
     8    23    27    1
     9    23    24    1
    10    24    25    1
    11    25    26    1
    12    23     1    1
    13     1     2   am
    14     2     3    2
    15     2     4    1
    16     4     5    1
    17     4    35    1
    18    35    36    1
    19    36    37    2
    20    36    38    1
    21    38    39   ar
    22    38    40   ar
    23     4     6    1
    24     6     7    1
    25     7     9    1
    26     9    10   ar
    27    10    11   ar
    28    11    12   ar
    29    12    13   ar
    30    13    14    1
    31    13    15   ar
    32     7     8    1
    33     8    16    1
    34    16    17   ar
    35    17    18   ar
    36    18    19   ar
    37    19    20    1
    38    19    21   ar
    39    21    22   ar
    40    26    24    1
    41     8     1    1
    42    22    16   ar
    43    15     9   ar
@<TRIPOS>MOLECULE
*****
 40 43 0 0 0
SMALL
GASTEIGER

@<TRIPOS>ATOM
      1 N          60.6533   95.0153   -1.2124 N.am    1  UNL1       -0.2770
      2 C          61.7862   95.5793   -0.4072 C.2     1  UNL1        0.2253
      3 O          61.5609   95.9935    1.0168 O.2     1  UNL1       -0.2749
      4 C          63.1443   95.7292   -1.0259 C.3     1  UNL1        0.0767
      5 C          64.5998   96.0631   -1.1672 C.3     1  UNL1        0.0096
      6 C          63.3696   95.3150   -2.4499 C.3     1  UNL1        0.0154
      7 C          62.2367   94.7509   -3.2551 C.3     1  UNL1        0.0452
      8 C          60.8786   94.6011   -2.6364 C.3     1  UNL1        0.1018
      9 C          62.4620   94.3367   -4.6791 C.ar    1  UNL1       -0.0197
     10 C          61.7158   95.0206   -5.7861 C.ar    1  UNL1       -0.0042
     11 C          61.9411   94.6064   -7.2101 C.ar    1  UNL1        0.0005
     12 C          62.9126   93.5083   -7.5270 C.ar    1  UNL1        0.0114
     13 C          63.6588   92.8245   -6.4200 C.ar    1  UNL1        0.0574
     14 CL         64.6304   91.7264   -6.7369 Cl      1  UNL1       -0.0823
     15 C          63.4335   93.2387   -4.9960 C.ar    1  UNL1        0.0072
     16 C          59.7456   94.0370   -3.4416 C.ar    1  UNL1       -0.0039
     17 C          59.1809   92.6899   -3.1005 C.ar    1  UNL1       -0.0018
     18 C          58.0480   92.1258   -3.9057 C.ar    1  UNL1        0.0111
     19 C          57.4798   92.9089   -5.0520 C.ar    1  UNL1        0.0577
     20 CL         56.3469   92.3448   -5.8571 Cl      1  UNL1       -0.0822
     21 C          58.0444   94.2560   -5.3930 C.ar    1  UNL1        0.0111
     22 C          59.1774   94.8201   -4.5878 C.ar    1  UNL1       -0.0018
     23 C          59.2950   94.8654   -0.5937 C.3     1  UNL1        0.0991
     24 C          58.2371   95.8980   -0.8477 C.3     1  UNL1        0.0200
     25 C          57.4679   96.7620   -1.8026 C.3     1  UNL1        0.0018
     26 C          57.1739   96.8223   -0.3330 C.3     1  UNL1        0.0018
     27 C          58.9948   93.6830    0.2791 C.3     1  UNL1        0.1703
     28 S          60.0607   93.1198    1.1718 S.O2    1  UNL1       -0.0115
     29 O          59.7580   94.1720    2.1971 O.2     1  UNL1       -0.1730
     30 O          60.3633   92.0677    0.1465 O.2     1  UNL1       -0.1730
     31 C          61.9856   92.2827    0.8657 C.3     1  UNL1        0.0236
     32 C          61.1265   92.5566    2.0644 C.3     1  UNL1        0.1108
     33 C          60.2674   92.8304    3.2630 C.3     1  UNL1        0.0236
     34 C          62.1923   91.9933    2.9569 C.3     1  UNL1        0.0236
     35 C          63.4246   96.2594    0.3490 C.3     1  UNL1        0.0790
     36 C          64.7136   95.9184    1.0360 C.2     1  UNL1        0.1874
     37 O          65.8817   96.8552    0.9468 O.2     1  UNL1       -0.2901
     38 C          64.8346   94.6405    1.8123 C.2     1  UNL1        0.1077
     39 O          65.5269   93.4566    1.2048 O.co2   1  UNL1       -0.5417
     40 O          64.2632   94.5467    3.1960 O.co2   1  UNL1       -0.5417
@<TRIPOS>UNITY_ATOM_ATTR
39 1
charge -1
@<TRIPOS>BOND
     1    31    32    1
     2    32    33    1
     3    32    34    1
     4    32    28    1
     5    28    29    2
     6    28    30    2
     7    28    27    1
     8    23    27    1
     9    23    24    1
    10    24    25    1
    11    25    26    1
    12    23     1    1
    13     1     2   am
    14     2     3    2
    15     2     4    1
    16     4     5    1
    17     4    35    1
    18    35    36    1
    19    36    37    2
    20    36    38    1
    21    38    39   ar
    22    38    40   ar
    23     4     6    1
    24     6     7    1
    25     7     9    1
    26     9    10   ar
    27    10    11   ar
    28    11    12   ar
    29    12    13   ar
    30    13    14    1
    31    13    15   ar
    32     7     8    1
    33     8    16    1
    34    16    17   ar
    35    17    18   ar
    36    18    19   ar
    37    19    20    1
    38    19    21   ar
    39    21    22   ar
    40    26    24    1
    41     8     1    1
    42    22    16   ar
    43    15     9   ar
@<TRIPOS>MOLECULE
*****
 40 43 0 0 0
SMALL
GASTEIGER

@<TRIPOS>ATOM
      1 N          61.7662   94.0054   -1.1054 N.am    1  UNL1       -0.2770
      2 C          61.6831   93.4794    0.2969 C.2     1  UNL1        0.2253
      3 O          62.9381   93.1585    1.0532 O.2     1  UNL1       -0.2749
      4 C          60.3449   93.2744    0.9428 C.3     1  UNL1        0.0767
      5 C          59.3189   92.9144    1.9760 C.3     1  UNL1        0.0096
      6 C          59.0900   93.5953    0.1865 C.3     1  UNL1        0.0154
      7 C          59.1731   94.1213   -1.2157 C.3     1  UNL1        0.0452
      8 C          60.5112   94.3264   -1.8617 C.3     1  UNL1        0.1018
      9 C          57.9181   94.4423   -1.9720 C.ar    1  UNL1       -0.0197
     10 C          57.0991   95.6401   -1.5921 C.ar    1  UNL1       -0.0042
     11 C          55.8441   95.9611   -2.3484 C.ar    1  UNL1        0.0005
     12 C          55.4081   95.0842   -3.4847 C.ar    1  UNL1        0.0114
     13 C          56.2272   93.8864   -3.8646 C.ar    1  UNL1        0.0574
     14 CL         55.7913   93.0095   -5.0008 Cl      1  UNL1       -0.0823
     15 C          57.4822   93.5654   -3.1083 C.ar    1  UNL1        0.0072
     16 C          60.5944   94.8524   -3.2640 C.ar    1  UNL1       -0.0039
     17 C          60.5826   93.9012   -4.4238 C.ar    1  UNL1       -0.0018
     18 C          60.6658   94.4272   -5.8260 C.ar    1  UNL1        0.0111
     19 C          60.7609   95.9045   -6.0686 C.ar    1  UNL1        0.0577
     20 CL         60.8441   96.4304   -7.4708 Cl      1  UNL1       -0.0822
     21 C          60.7727   96.8557   -4.9088 C.ar    1  UNL1        0.0111
     22 C          60.6895   96.3296   -3.5065 C.ar    1  UNL1       -0.0018
     23 C          63.1044   94.2105   -1.7514 C.3     1  UNL1        0.0991
     24 C          63.9300   95.4129   -1.4010 C.3     1  UNL1        0.0200
     25 C          65.2711   96.0574   -1.2117 C.3     1  UNL1        0.0018
     26 C          64.0188   96.8508   -0.9833 C.3     1  UNL1        0.0018
     27 C          63.6170   93.2133   -2.7478 C.3     1  UNL1        0.1703
     28 S          64.3009   93.6847   -3.9968 S.O2    1  UNL1       -0.0115
     29 O          65.0118   92.3683   -4.1044 O.2     1  UNL1       -0.1730
     30 O          63.5900   95.0011   -3.8893 O.2     1  UNL1       -0.1730
     31 C          64.7269   95.5796   -4.8498 C.3     1  UNL1        0.0236
     32 C          64.9849   94.1561   -5.2458 C.3     1  UNL1        0.1108
     33 C          65.2428   92.7325   -5.6418 C.3     1  UNL1        0.0236
     34 C          65.6688   94.6274   -6.4948 C.3     1  UNL1        0.0236
     35 C          61.2435   92.8284    2.0580 C.3     1  UNL1        0.0790
     36 C          60.6745   92.5676    3.4212 C.2     1  UNL1        0.1874
     37 O          59.5355   93.4005    3.9303 O.2     1  UNL1       -0.2901
     38 C          61.2444   91.4740    4.2752 C.2     1  UNL1        0.1077
     39 O          62.6569   91.0160    4.0633 O.co2   1  UNL1       -0.5417
     40 O          60.4016   90.8386    5.3410 O.co2   1  UNL1       -0.5417
@<TRIPOS>UNITY_ATOM_ATTR
39 1
charge -1
@<TRIPOS>BOND
     1    31    32    1
     2    32    33    1
     3    32    34    1
     4    32    28    1
     5    28    29    2
     6    28    30    2
     7    28    27    1
     8    23    27    1
     9    23    24    1
    10    24    25    1
    11    25    26    1
    12    23     1    1
    13     1     2   am
    14     2     3    2
    15     2     4    1
    16     4     5    1
    17     4    35    1
    18    35    36    1
    19    36    37    2
    20    36    38    1
    21    38    39   ar
    22    38    40   ar
    23     4     6    1
    24     6     7    1
    25     7     9    1
    26     9    10   ar
    27    10    11   ar
    28    11    12   ar
    29    12    13   ar
    30    13    14    1
    31    13    15   ar
    32     7     8    1
    33     8    16    1
    34    16    17   ar
    35    17    18   ar
    36    18    19   ar
    37    19    20    1
    38    19    21   ar
    39    21    22   ar
    40    26    24    1
    41     8     1    1
    42    22    16   ar
    43    15     9   ar
@<TRIPOS>MOLECULE
*****
 40 43 0 0 0
SMALL
GASTEIGER

@<TRIPOS>ATOM
      1 N          62.3563   93.9957   -0.3018 N.am    1  UNL1       -0.2770
      2 C          62.5122   93.4528    1.0878 C.2     1  UNL1        0.2253
      3 O          63.8808   93.2868    1.6789 O.2     1  UNL1       -0.2749
      4 C          61.2996   93.0760    1.8861 C.3     1  UNL1        0.0767
      5 C          60.4610   92.5820    3.0275 C.3     1  UNL1        0.0096
      6 C          59.9310   93.2421    1.2950 C.3     1  UNL1        0.0154
      7 C          59.7751   93.7849   -0.0946 C.3     1  UNL1        0.0452
      8 C          60.9877   94.1618   -0.8930 C.3     1  UNL1        0.1018
      9 C          58.4065   93.9510   -0.6858 C.ar    1  UNL1       -0.0197
     10 C          57.6422   92.7494   -1.1568 C.ar    1  UNL1       -0.0042
     11 C          56.2736   92.9155   -1.7479 C.ar    1  UNL1        0.0005
     12 C          55.6694   94.2831   -1.8681 C.ar    1  UNL1        0.0114
     13 C          56.4338   95.4847   -1.3971 C.ar    1  UNL1        0.0574
     14 CL         55.8297   96.8524   -1.5173 Cl      1  UNL1       -0.0823
     15 C          57.8024   95.3186   -0.8060 C.ar    1  UNL1        0.0072
     16 C          60.8319   94.7046   -2.2826 C.ar    1  UNL1       -0.0039
     17 C          61.1280   96.1485   -2.5613 C.ar    1  UNL1       -0.0018
     18 C          60.9722   96.6914   -3.9509 C.ar    1  UNL1        0.0111
     19 C          60.5201   95.7905   -5.0618 C.ar    1  UNL1        0.0577
     20 CL         60.3643   96.3334   -6.4514 Cl      1  UNL1       -0.0822
     21 C          60.2240   94.3466   -4.7831 C.ar    1  UNL1        0.0111
     22 C          60.3799   93.8037   -3.3935 C.ar    1  UNL1       -0.0018
     23 C          63.5690   94.3725   -1.1003 C.3     1  UNL1        0.0991
     24 C          64.2264   95.7031   -0.8828 C.3     1  UNL1        0.0200
     25 C          64.5596   96.8557    0.0174 C.3     1  UNL1        0.0018
     26 C          65.0319   96.8551   -1.4063 C.3     1  UNL1        0.0018
     27 C          64.1242   93.4188   -2.1162 C.3     1  UNL1        0.1703
     28 S          64.0166   93.7344   -3.5787 S.O2    1  UNL1       -0.0115
     29 O          63.1479   92.5275   -3.7753 O.2     1  UNL1       -0.1730
     30 O          64.8852   94.9413   -3.3821 O.2     1  UNL1       -0.1730
     31 C          63.5937   92.6120   -5.3283 C.3     1  UNL1        0.0236
     32 C          63.9090   94.0500   -5.0411 C.3     1  UNL1        0.1108
     33 C          64.2244   95.4881   -4.7540 C.3     1  UNL1        0.0236
     34 C          63.8015   94.3657   -6.5036 C.3     1  UNL1        0.0236
     35 C          62.3768   92.7384    2.8738 C.3     1  UNL1        0.0790
     36 C          62.3218   91.4445    3.6307 C.2     1  UNL1        0.1874
     37 O          61.3682   91.2867    4.7778 O.2     1  UNL1       -0.2901
     38 C          63.2203   90.3085    3.2405 C.2     1  UNL1        0.1077
     39 O          64.7097   90.4719    3.3112 O.co2   1  UNL1       -0.5417
     40 O          62.6293   89.0092    2.7795 O.co2   1  UNL1       -0.5417
@<TRIPOS>UNITY_ATOM_ATTR
39 1
charge -1
@<TRIPOS>BOND
     1    31    32    1
     2    32    33    1
     3    32    34    1
     4    32    28    1
     5    28    29    2
     6    28    30    2
     7    28    27    1
     8    23    27    1
     9    23    24    1
    10    24    25    1
    11    25    26    1
    12    23     1    1
    13     1     2   am
    14     2     3    2
    15     2     4    1
    16     4     5    1
    17     4    35    1
    18    35    36    1
    19    36    37    2
    20    36    38    1
    21    38    39   ar
    22    38    40   ar
    23     4     6    1
    24     6     7    1
    25     7     9    1
    26     9    10   ar
    27    10    11   ar
    28    11    12   ar
    29    12    13   ar
    30    13    14    1
    31    13    15   ar
    32     7     8    1
    33     8    16    1
    34    16    17   ar
    35    17    18   ar
    36    18    19   ar
    37    19    20    1
    38    19    21   ar
    39    21    22   ar
    40    26    24    1
    41     8     1    1
    42    22    16   ar
    43    15     9   ar
