@<TRIPOS>MOLECULE
*****
 35 40 0 0 0
SMALL
GASTEIGER

@<TRIPOS>ATOM
      1 C          62.9232   85.4069   13.2004 C.ar    1  UNL1        0.2389
      2 N          62.1485   85.9991   12.0608 N.ar    1  UNL1       -0.1956
      3 C          62.2474   87.4672   11.7692 C.ar    1  UNL1        0.1424
      4 C          63.1211   88.3431   12.6174 C.ar    1  UNL1        0.0785
      5 S          63.4157   89.8131   12.5709 S.2     1  UNL1       -0.0856
      6 C          64.3726   90.1295   13.6819 C.ar    1  UNL1        0.0251
      7 C          64.6693   88.8549   14.4150 C.ar    1  UNL1        0.0233
      8 C          63.8959   87.7509   13.7571 C.ar    1  UNL1        0.0933
      9 N          63.7970   86.2828   14.0487 N.ar    1  UNL1       -0.2105
     10 C          62.4245   84.0628   16.1320 C.3     1  UNL1        0.0723
     11 C          62.5951   83.3210   14.8395 C.ar    1  UNL1        0.1268
     12 N          62.5664   81.8312   14.6674 N.ar    1  UNL1       -0.2305
     13 C          62.7779   81.5282   13.2137 C.ar    1  UNL1        0.0987
     14 C          62.8459   80.2346   12.4576 C.ar    1  UNL1        0.0206
     15 C          63.0733   80.2435   10.9750 C.ar    1  UNL1        0.0016
     16 C          63.2327   81.5461   10.2485 C.ar    1  UNL1        0.0016
     17 C          63.1647   82.8398   11.0046 C.ar    1  UNL1        0.0192
     18 C          62.9373   82.8308   12.4872 C.ar    1  UNL1        0.0854
     19 N          62.8243   83.9388   13.4920 N.ar    1  UNL1       -0.2632
     20 N          61.4726   88.0594   10.6295 N.pl3   1  UNL1       -0.2876
     21 C          60.8978   89.4395   10.7502 C.3     1  UNL1        0.1243
     22 C          60.1230   90.0317    9.6105 C.3     1  UNL1        0.1636
     23 O          59.9230   89.2437    8.3499 O.3     1  UNL1       -0.3501
     24 C          60.4978   87.8635    8.2292 C.3     1  UNL1        0.1636
     25 C          61.2726   87.2713    9.3689 C.3     1  UNL1        0.1243
     26 C          64.9341   91.4827   14.0033 C.3     1  UNL1        0.1057
     27 N          65.3124   92.4203   12.8952 N.3     1  UNL1       -0.2685
     28 C          66.0797   93.6723   13.2013 C.3     1  UNL1        0.0738
     29 C          66.4580   94.6100   12.0933 C.3     1  UNL1        0.0333
     30 C          66.0690   94.2956   10.6792 C.3     1  UNL1        0.0604
     31 C          65.3017   93.0436   10.3730 C.3     1  UNL1        0.0333
     32 C          64.9234   92.1059   11.4810 C.3     1  UNL1        0.0738
     33 N          66.4473   95.2332    9.5712 N.3     1  UNL1       -0.2715
     34 C          67.5218   94.8490    8.5976 C.3     1  UNL1        0.0896
     35 C          65.7511   96.5550    9.4366 C.3     1  UNL1        0.0896
@<TRIPOS>BOND
     1    10    11    1
     2    11    12   ar
     3    12    13   ar
     4    13    14   ar
     5    14    15   ar
     6    15    16   ar
     7    16    17   ar
     8    17    18   ar
     9    18    19   ar
    10    19     1    1
    11     1     2   ar
    12     2     3   ar
    13     3    20    1
    14    20    21    1
    15    21    22    1
    16    22    23    1
    17    23    24    1
    18    24    25    1
    19     3     4   ar
    20     4     5   ar
    21     5     6   ar
    22     6    26    1
    23    26    27    1
    24    27    28    1
    25    28    29    1
    26    29    30    1
    27    30    33    1
    28    33    34    1
    29    33    35    1
    30    30    31    1
    31    31    32    1
    32     6     7   ar
    33     7     8   ar
    34     8     9   ar
    35    19    11   ar
    36     9     1   ar
    37    18    13   ar
    38    25    20    1
    39     8     4   ar
    40    32    27    1
@<TRIPOS>MOLECULE
*****
 35 40 0 0 0
SMALL
GASTEIGER

@<TRIPOS>ATOM
      1 C          62.5264   85.3100   12.5967 C.ar    1  UNL1        0.2389
      2 N          61.7018   85.6344   11.3865 N.ar    1  UNL1       -0.1956
      3 C          61.6623   87.0385   10.8601 C.ar    1  UNL1        0.1424
      4 C          62.4474   88.1182   11.5440 C.ar    1  UNL1        0.0785
      5 S          62.6020   89.5823   11.2566 S.2     1  UNL1       -0.0856
      6 C          63.5222   90.1628   12.2891 C.ar    1  UNL1        0.0251
      7 C          63.9363   89.0575   13.2148 C.ar    1  UNL1        0.0233
      8 C          63.2720   87.7939   12.7543 C.ar    1  UNL1        0.0933
      9 N          63.3116   86.3898   13.2806 N.ar    1  UNL1       -0.2105
     10 C          62.2826   84.4283   15.7292 C.3     1  UNL1        0.0723
     11 C          62.4539   83.5007   14.5629 C.ar    1  UNL1        0.1268
     12 N          62.5431   82.0049   14.6316 N.ar    1  UNL1       -0.2305
     13 C          62.7103   81.4858   13.2343 C.ar    1  UNL1        0.0987
     14 C          62.8516   80.0950   12.6905 C.ar    1  UNL1        0.0206
     15 C          63.0069   79.8792   11.2143 C.ar    1  UNL1        0.0016
     16 C          63.0210   81.0542   10.2819 C.ar    1  UNL1        0.0016
     17 C          62.8798   82.4449   10.8257 C.ar    1  UNL1        0.0192
     18 C          62.7244   82.6607   12.3019 C.ar    1  UNL1        0.0854
     19 N          62.5659   83.9060   13.1231 N.ar    1  UNL1       -0.2632
     20 N          60.8376   87.3628    9.6499 N.pl3   1  UNL1       -0.2876
     21 C          60.3025   86.2575    8.7886 C.3     1  UNL1        0.1243
     22 C          59.4779   86.5818    7.5784 C.3     1  UNL1        0.1636
     23 O          59.1883   88.0116    7.2293 O.3     1  UNL1       -0.3501
     24 C          59.7233   89.1170    8.0906 C.3     1  UNL1        0.1636
     25 C          60.5480   88.7926    9.3008 C.3     1  UNL1        0.1243
     26 C          63.9527   91.5967   12.3802 C.3     1  UNL1        0.1057
     27 N          65.1127   91.9777   13.2516 N.3     1  UNL1       -0.2685
     28 C          64.9576   91.9900   14.7435 C.3     1  UNL1        0.0738
     29 C          66.1175   92.3709   15.6150 C.3     1  UNL1        0.0333
     30 C          67.4325   92.7396   14.9946 C.3     1  UNL1        0.0604
     31 C          67.5875   92.7273   13.5026 C.3     1  UNL1        0.0333
     32 C          66.4277   92.3463   12.6311 C.3     1  UNL1        0.0738
     33 N          68.5924   93.1205   15.8659 N.3     1  UNL1       -0.2715
     34 C          69.0321   94.5525   15.9457 C.3     1  UNL1        0.0896
     35 C          69.3127   92.0697   16.6576 C.3     1  UNL1        0.0896
@<TRIPOS>BOND
     1    10    11    1
     2    11    12   ar
     3    12    13   ar
     4    13    14   ar
     5    14    15   ar
     6    15    16   ar
     7    16    17   ar
     8    17    18   ar
     9    18    19   ar
    10    19     1    1
    11     1     2   ar
    12     2     3   ar
    13     3    20    1
    14    20    21    1
    15    21    22    1
    16    22    23    1
    17    23    24    1
    18    24    25    1
    19     3     4   ar
    20     4     5   ar
    21     5     6   ar
    22     6    26    1
    23    26    27    1
    24    27    28    1
    25    28    29    1
    26    29    30    1
    27    30    33    1
    28    33    34    1
    29    33    35    1
    30    30    31    1
    31    31    32    1
    32     6     7   ar
    33     7     8   ar
    34     8     9   ar
    35    19    11   ar
    36     9     1   ar
    37    18    13   ar
    38    25    20    1
    39     8     4   ar
    40    32    27    1
@<TRIPOS>MOLECULE
*****
 35 40 0 0 0
SMALL
GASTEIGER

@<TRIPOS>ATOM
      1 C          62.8179   84.7158   11.5746 C.ar    1  UNL1        0.2389
      2 N          61.9291   85.3629   10.5542 N.ar    1  UNL1       -0.1956
      3 C          61.7526   86.8524   10.5500 C.ar    1  UNL1        0.1424
      4 C          62.4649   87.6950   11.5662 C.ar    1  UNL1        0.0785
      5 S          62.4844   89.1755   11.8065 S.2     1  UNL1       -0.0856
      6 C          63.3853   89.4435   12.9754 C.ar    1  UNL1        0.0251
      7 C          63.9226   88.1286   13.4576 C.ar    1  UNL1        0.0233
      8 C          63.3537   87.0480   12.5866 C.ar    1  UNL1        0.0933
      9 N          63.5303   85.5584   12.5908 N.ar    1  UNL1       -0.2105
     10 C          64.5095   82.9785    9.3906 C.3     1  UNL1        0.0723
     11 C          63.7720   82.4277   10.5750 C.ar    1  UNL1        0.1268
     12 N          63.6825   80.9816   10.9635 N.ar    1  UNL1       -0.2305
     13 C          62.8497   80.8865   12.2074 C.ar    1  UNL1        0.0987
     14 C          62.4236   79.7159   13.0429 C.ar    1  UNL1        0.0206
     15 C          61.5723   79.9325   14.2587 C.ar    1  UNL1        0.0016
     16 C          61.1471   81.3198   14.6391 C.ar    1  UNL1        0.0016
     17 C          61.5731   82.4904   13.8036 C.ar    1  UNL1        0.0192
     18 C          62.4244   82.2738   12.5877 C.ar    1  UNL1        0.0854
     19 N          62.9944   83.2262   11.5788 N.ar    1  UNL1       -0.2632
     20 N          60.8637   87.4994    9.5295 N.pl3   1  UNL1       -0.2876
     21 C          59.9755   86.6547    8.6651 C.3     1  UNL1        0.1243
     22 C          59.0866   87.3017    7.6446 C.3     1  UNL1        0.1636
     23 O          59.0860   88.7935    7.4886 O.3     1  UNL1       -0.3501
     24 C          59.9742   89.6383    8.3531 C.3     1  UNL1        0.1636
     25 C          60.8630   88.9913    9.3735 C.3     1  UNL1        0.1243
     26 C          63.6947   90.7899   13.5597 C.3     1  UNL1        0.1057
     27 N          64.5186   91.7734   12.7826 N.3     1  UNL1       -0.2685
     28 C          64.3002   91.9345   11.3073 C.3     1  UNL1        0.0738
     29 C          65.1240   92.9179   10.5301 C.3     1  UNL1        0.0333
     30 C          66.1664   93.7403   11.2282 C.3     1  UNL1        0.0604
     31 C          66.3849   93.5791   12.7034 C.3     1  UNL1        0.0333
     32 C          65.5610   92.5957   13.4806 C.3     1  UNL1        0.0738
     33 N          66.9903   94.7237   10.4511 N.3     1  UNL1       -0.2715
     34 C          66.7909   96.1963   10.6556 C.3     1  UNL1        0.0896
     35 C          68.0136   94.2347    9.4694 C.3     1  UNL1        0.0896
@<TRIPOS>BOND
     1    10    11    1
     2    11    12   ar
     3    12    13   ar
     4    13    14   ar
     5    14    15   ar
     6    15    16   ar
     7    16    17   ar
     8    17    18   ar
     9    18    19   ar
    10    19     1    1
    11     1     2   ar
    12     2     3   ar
    13     3    20    1
    14    20    21    1
    15    21    22    1
    16    22    23    1
    17    23    24    1
    18    24    25    1
    19     3     4   ar
    20     4     5   ar
    21     5     6   ar
    22     6    26    1
    23    26    27    1
    24    27    28    1
    25    28    29    1
    26    29    30    1
    27    30    33    1
    28    33    34    1
    29    33    35    1
    30    30    31    1
    31    31    32    1
    32     6     7   ar
    33     7     8   ar
    34     8     9   ar
    35    19    11   ar
    36     9     1   ar
    37    18    13   ar
    38    25    20    1
    39     8     4   ar
    40    32    27    1
@<TRIPOS>MOLECULE
*****
 35 40 0 0 0
SMALL
GASTEIGER

@<TRIPOS>ATOM
      1 C          62.7509   84.9530   11.4442 C.ar    1  UNL1        0.2389
      2 N          61.8493   85.5386   10.3982 N.ar    1  UNL1       -0.1956
      3 C          61.5885   87.0156   10.3744 C.ar    1  UNL1        0.1424
      4 C          62.2294   87.9070   11.3965 C.ar    1  UNL1        0.0785
      5 S          62.1595   89.3883   11.6214 S.2     1  UNL1       -0.0856
      6 C          63.0179   89.7183   12.8064 C.ar    1  UNL1        0.0251
      7 C          63.6183   88.4408   13.3139 C.ar    1  UNL1        0.0233
      8 C          63.1310   87.3214   12.4425 C.ar    1  UNL1        0.0933
      9 N          63.3918   85.8444   12.4664 N.ar    1  UNL1       -0.2105
     10 C          64.4477   83.2686    9.2231 C.3     1  UNL1        0.0723
     11 C          63.7916   82.7018   10.4471 C.ar    1  UNL1        0.1268
     12 N          63.8002   81.2613   10.8652 N.ar    1  UNL1       -0.2305
     13 C          63.0256   81.1452   12.1445 C.ar    1  UNL1        0.0987
     14 C          62.7011   79.9699   13.0182 C.ar    1  UNL1        0.0206
     15 C          61.8892   80.1635   14.2645 C.ar    1  UNL1        0.0016
     16 C          61.4018   81.5323   14.6371 C.ar    1  UNL1        0.0016
     17 C          61.7263   82.7076   13.7634 C.ar    1  UNL1        0.0192
     18 C          62.5382   82.5140   12.5171 C.ar    1  UNL1        0.0854
     19 N          63.0116   83.4760   11.4680 N.ar    1  UNL1       -0.2632
     20 N          60.6869   87.6012    9.3284 N.pl3   1  UNL1       -0.2876
     21 C          59.8134   86.7035    8.5031 C.3     1  UNL1        0.1243
     22 C          58.9118   87.2891    7.4571 C.3     1  UNL1        0.1636
     23 O          58.8836   88.7725    7.2363 O.3     1  UNL1       -0.3501
     24 C          59.7571   89.6702    8.0616 C.3     1  UNL1        0.1636
     25 C          60.6587   89.0846    9.1076 C.3     1  UNL1        0.1243
     26 C          63.2374   91.0856   13.3828 C.3     1  UNL1        0.1057
     27 N          64.6239   91.5377   13.7340 N.3     1  UNL1       -0.2685
     28 C          65.0636   91.5633   15.1679 C.3     1  UNL1        0.0738
     29 C          66.4500   92.0154   15.5192 C.3     1  UNL1        0.0333
     30 C          67.3967   92.4420   14.4367 C.3     1  UNL1        0.0604
     31 C          66.9569   92.4165   13.0028 C.3     1  UNL1        0.0333
     32 C          65.5705   91.9643   12.6515 C.3     1  UNL1        0.0738
     33 N          68.7831   92.8942   14.7879 N.3     1  UNL1       -0.2715
     34 C          69.9636   92.3353   14.0504 C.3     1  UNL1        0.0896
     35 C          68.9890   93.9053   15.8766 C.3     1  UNL1        0.0896
@<TRIPOS>BOND
     1    10    11    1
     2    11    12   ar
     3    12    13   ar
     4    13    14   ar
     5    14    15   ar
     6    15    16   ar
     7    16    17   ar
     8    17    18   ar
     9    18    19   ar
    10    19     1    1
    11     1     2   ar
    12     2     3   ar
    13     3    20    1
    14    20    21    1
    15    21    22    1
    16    22    23    1
    17    23    24    1
    18    24    25    1
    19     3     4   ar
    20     4     5   ar
    21     5     6   ar
    22     6    26    1
    23    26    27    1
    24    27    28    1
    25    28    29    1
    26    29    30    1
    27    30    33    1
    28    33    34    1
    29    33    35    1
    30    30    31    1
    31    31    32    1
    32     6     7   ar
    33     7     8   ar
    34     8     9   ar
    35    19    11   ar
    36     9     1   ar
    37    18    13   ar
    38    25    20    1
    39     8     4   ar
    40    32    27    1
@<TRIPOS>MOLECULE
*****
 35 40 0 0 0
SMALL
GASTEIGER

@<TRIPOS>ATOM
      1 C          64.7405   90.7753   13.2994 C.ar    1  UNL1        0.2389
      2 N          63.7763   90.4283   12.2041 N.ar    1  UNL1       -0.1956
      3 C          63.1640   89.0600   12.1494 C.ar    1  UNL1        0.1424
      4 C          63.5159   88.0387   13.1900 C.ar    1  UNL1        0.0785
      5 S          63.0751   86.6194   13.3929 S.2     1  UNL1       -0.0856
      6 C          63.7668   86.0891   14.6137 C.ar    1  UNL1        0.0251
      7 C          64.6352   87.1807   15.1653 C.ar    1  UNL1        0.0233
      8 C          64.4802   88.3856   14.2854 C.ar    1  UNL1        0.0933
      9 N          65.0925   89.7539   14.3402 N.ar    1  UNL1       -0.2105
     10 C          65.7168   92.3334   15.9955 C.3     1  UNL1        0.0723
     11 C          65.8015   92.8597   14.5934 C.ar    1  UNL1        0.1268
     12 N          66.3499   94.1946   14.1844 N.ar    1  UNL1       -0.2305
     13 C          66.2401   94.3034   12.6923 C.ar    1  UNL1        0.0987
     14 C          66.6216   95.3930   11.7347 C.ar    1  UNL1        0.0206
     15 C          66.3869   95.2150   10.2639 C.ar    1  UNL1        0.0016
     16 C          65.7706   93.9473    9.7508 C.ar    1  UNL1        0.0016
     17 C          65.3891   92.8577   10.7085 C.ar    1  UNL1        0.0192
     18 C          65.6238   93.0358   12.1793 C.ar    1  UNL1        0.0854
     19 N          65.3528   92.1435   13.3542 N.ar    1  UNL1       -0.2632
     20 N          62.1997   88.7131   11.0540 N.pl3   1  UNL1       -0.2876
     21 C          62.3122   87.3961   10.3451 C.3     1  UNL1        0.1243
     22 C          61.3479   87.0492    9.2497 C.3     1  UNL1        0.1636
     23 O          60.2712   88.0194    8.8632 O.3     1  UNL1       -0.3501
     24 C          60.1587   89.3364    9.5722 C.3     1  UNL1        0.1636
     25 C          61.1230   89.6833   10.6676 C.3     1  UNL1        0.1243
     26 C          63.6165   84.7096   15.1829 C.3     1  UNL1        0.1057
     27 N          63.4221   83.5374   14.2673 N.3     1  UNL1       -0.2685
     28 C          64.3526   83.3277   13.1096 C.3     1  UNL1        0.0738
     29 C          64.1583   82.1557   12.1939 C.3     1  UNL1        0.0333
     30 C          63.0335   81.1933   12.4359 C.3     1  UNL1        0.0604
     31 C          62.1030   81.4029   13.5936 C.3     1  UNL1        0.0333
     32 C          62.2973   82.5750   14.5093 C.3     1  UNL1        0.0738
     33 N          62.8391   80.0212   11.5203 N.3     1  UNL1       -0.2715
     34 C          62.4575   78.6844   12.0838 C.3     1  UNL1        0.0896
     35 C          63.0264   80.1857   10.0412 C.3     1  UNL1        0.0896
@<TRIPOS>BOND
     1    10    11    1
     2    11    12   ar
     3    12    13   ar
     4    13    14   ar
     5    14    15   ar
     6    15    16   ar
     7    16    17   ar
     8    17    18   ar
     9    18    19   ar
    10    19     1    1
    11     1     2   ar
    12     2     3   ar
    13     3    20    1
    14    20    21    1
    15    21    22    1
    16    22    23    1
    17    23    24    1
    18    24    25    1
    19     3     4   ar
    20     4     5   ar
    21     5     6   ar
    22     6    26    1
    23    26    27    1
    24    27    28    1
    25    28    29    1
    26    29    30    1
    27    30    33    1
    28    33    34    1
    29    33    35    1
    30    30    31    1
    31    31    32    1
    32     6     7   ar
    33     7     8   ar
    34     8     9   ar
    35    19    11   ar
    36     9     1   ar
    37    18    13   ar
    38    25    20    1
    39     8     4   ar
    40    32    27    1
@<TRIPOS>MOLECULE
*****
 35 40 0 0 0
SMALL
GASTEIGER

@<TRIPOS>ATOM
      1 C          62.6714   85.1388   11.3472 C.ar    1  UNL1        0.2389
      2 N          61.7928   85.7252   10.2823 N.ar    1  UNL1       -0.1956
      3 C          61.5493   87.2048   10.2415 C.ar    1  UNL1        0.1424
      4 C          62.1846   88.0979   11.2655 C.ar    1  UNL1        0.0785
      5 S          62.1282   89.5819   11.4764 S.2     1  UNL1       -0.0856
      6 C          62.9720   89.9128   12.6715 C.ar    1  UNL1        0.0251
      7 C          63.5499   88.6332   13.1994 C.ar    1  UNL1        0.0233
      8 C          63.0633   87.5115   12.3304 C.ar    1  UNL1        0.0933
      9 N          63.3067   86.0320   12.3713 N.ar    1  UNL1       -0.2105
     10 C          64.1993   83.3823    9.0602 C.3     1  UNL1        0.0723
     11 C          63.6172   82.8519   10.3368 C.ar    1  UNL1        0.1268
     12 N          63.6351   81.4210   10.7864 N.ar    1  UNL1       -0.2305
     13 C          62.9439   81.3439   12.1155 C.ar    1  UNL1        0.0987
     14 C          62.6623   80.1929   13.0351 C.ar    1  UNL1        0.0206
     15 C          61.9356   80.4252   14.3266 C.ar    1  UNL1        0.0016
     16 C          61.4905   81.8086   14.6984 C.ar    1  UNL1        0.0016
     17 C          61.7721   82.9596   13.7787 C.ar    1  UNL1        0.0192
     18 C          62.4988   82.7273   12.4873 C.ar    1  UNL1        0.0854
     19 N          62.9149   83.6592   11.3880 N.ar    1  UNL1       -0.2632
     20 N          60.6706   87.7911    9.1766 N.pl3   1  UNL1       -0.2876
     21 C          60.8216   89.2323    8.7891 C.3     1  UNL1        0.1243
     22 C          59.9429   89.8187    7.7242 C.3     1  UNL1        0.1636
     23 O          58.9132   88.9639    7.0467 O.3     1  UNL1       -0.3501
     24 C          58.7622   87.5227    7.4342 C.3     1  UNL1        0.1636
     25 C          59.6409   86.9363    8.4991 C.3     1  UNL1        0.1243
     26 C          63.1983   91.2826   13.2392 C.3     1  UNL1        0.1057
     27 N          64.5796   91.7104   13.6382 N.3     1  UNL1       -0.2685
     28 C          65.3602   92.6404   12.7575 C.3     1  UNL1        0.0738
     29 C          66.7415   93.0683   13.1563 C.3     1  UNL1        0.0333
     30 C          67.3420   92.5661   14.4358 C.3     1  UNL1        0.0604
     31 C          66.5614   91.6361   15.3165 C.3     1  UNL1        0.0333
     32 C          65.1801   91.2082   14.9177 C.3     1  UNL1        0.0738
     33 N          68.7233   92.9939   14.8347 N.3     1  UNL1       -0.2715
     34 C          68.9125   93.9475   15.9771 C.3     1  UNL1        0.0896
     35 C          69.9153   92.4682   14.0913 C.3     1  UNL1        0.0896
@<TRIPOS>BOND
     1    10    11    1
     2    11    12   ar
     3    12    13   ar
     4    13    14   ar
     5    14    15   ar
     6    15    16   ar
     7    16    17   ar
     8    17    18   ar
     9    18    19   ar
    10    19     1    1
    11     1     2   ar
    12     2     3   ar
    13     3    20    1
    14    20    21    1
    15    21    22    1
    16    22    23    1
    17    23    24    1
    18    24    25    1
    19     3     4   ar
    20     4     5   ar
    21     5     6   ar
    22     6    26    1
    23    26    27    1
    24    27    28    1
    25    28    29    1
    26    29    30    1
    27    30    33    1
    28    33    34    1
    29    33    35    1
    30    30    31    1
    31    31    32    1
    32     6     7   ar
    33     7     8   ar
    34     8     9   ar
    35    19    11   ar
    36     9     1   ar
    37    18    13   ar
    38    25    20    1
    39     8     4   ar
    40    32    27    1
@<TRIPOS>MOLECULE
*****
 35 40 0 0 0
SMALL
GASTEIGER

@<TRIPOS>ATOM
      1 C          62.3197   85.7659   10.6936 C.ar    1  UNL1        0.2389
      2 N          62.8628   87.0680   11.2031 N.ar    1  UNL1       -0.1956
      3 C          62.3326   88.3638   10.6649 C.ar    1  UNL1        0.1424
      4 C          61.2593   88.3576    9.6171 C.ar    1  UNL1        0.0785
      5 S          60.5466   89.4681    8.9037 S.2     1  UNL1       -0.0856
      6 C          59.5630   88.8524    7.9532 C.ar    1  UNL1        0.0251
      7 C          59.6678   87.3614    8.0792 C.ar    1  UNL1        0.0233
      8 C          60.7161   87.0556    9.1075 C.ar    1  UNL1        0.0933
      9 N          61.2463   85.7598    9.6457 N.ar    1  UNL1       -0.2105
     10 C          63.8224   83.4421    8.9640 C.3     1  UNL1        0.0723
     11 C          63.5406   83.4019   10.4368 C.ar    1  UNL1        0.1268
     12 N          63.9000   82.2866   11.3732 N.ar    1  UNL1       -0.2305
     13 C          63.4315   82.6654   12.7469 C.ar    1  UNL1        0.0987
     14 C          63.5120   81.9559   14.0660 C.ar    1  UNL1        0.0206
     15 C          62.9434   82.5959   15.2977 C.ar    1  UNL1        0.0016
     16 C          62.2944   83.9454   15.2103 C.ar    1  UNL1        0.0016
     17 C          62.2139   84.6549   13.8912 C.ar    1  UNL1        0.0192
     18 C          62.7825   84.0149   12.6595 C.ar    1  UNL1        0.0854
     19 N          62.8499   84.4701   11.2318 N.ar    1  UNL1       -0.2632
     20 N          62.8757   89.6658   11.1745 N.pl3   1  UNL1       -0.2876
     21 C          63.2919   90.7346   10.2078 C.3     1  UNL1        0.1243
     22 C          63.8351   92.0367   10.7174 C.3     1  UNL1        0.1636
     23 O          63.9620   92.2700   12.1937 O.3     1  UNL1       -0.3501
     24 C          63.5458   91.2012   13.1604 C.3     1  UNL1        0.1636
     25 C          63.0027   89.8991   12.6508 C.3     1  UNL1        0.1243
     26 C          58.6372   89.5969    7.0375 C.3     1  UNL1        0.1057
     27 N          59.1960   90.4467    5.9349 N.3     1  UNL1       -0.2685
     28 C          60.6490   90.3487    5.5754 C.3     1  UNL1        0.0738
     29 C          61.2078   91.1984    4.4729 C.3     1  UNL1        0.0333
     30 C          60.3137   92.1462    3.7298 C.3     1  UNL1        0.0604
     31 C          58.8607   92.2443    4.0893 C.3     1  UNL1        0.0333
     32 C          58.3018   91.3945    5.1918 C.3     1  UNL1        0.0738
     33 N          60.8724   92.9960    2.6273 N.3     1  UNL1       -0.2715
     34 C          60.0443   94.0987    2.0371 C.3     1  UNL1        0.0896
     35 C          62.2593   92.7431    2.1148 C.3     1  UNL1        0.0896
@<TRIPOS>BOND
     1    10    11    1
     2    11    12   ar
     3    12    13   ar
     4    13    14   ar
     5    14    15   ar
     6    15    16   ar
     7    16    17   ar
     8    17    18   ar
     9    18    19   ar
    10    19     1    1
    11     1     2   ar
    12     2     3   ar
    13     3    20    1
    14    20    21    1
    15    21    22    1
    16    22    23    1
    17    23    24    1
    18    24    25    1
    19     3     4   ar
    20     4     5   ar
    21     5     6   ar
    22     6    26    1
    23    26    27    1
    24    27    28    1
    25    28    29    1
    26    29    30    1
    27    30    33    1
    28    33    34    1
    29    33    35    1
    30    30    31    1
    31    31    32    1
    32     6     7   ar
    33     7     8   ar
    34     8     9   ar
    35    19    11   ar
    36     9     1   ar
    37    18    13   ar
    38    25    20    1
    39     8     4   ar
    40    32    27    1
