@<TRIPOS>MOLECULE
*****
 39 43 0 0 0
SMALL
GASTEIGER

@<TRIPOS>ATOM
      1 C          63.1989   87.5507   12.6249 C.3     1  UNL1        0.1522
      2 C          63.3129   86.0923   12.9567 C.3     1  UNL1        0.0313
      3 C          64.0700   85.9680   14.2457 C.3     1  UNL1        0.0264
      4 C          64.4238   87.3497   14.7105 C.3     1  UNL1        0.0942
      5 N          63.8854   88.3278   13.7088 N.am    1  UNL1       -0.2713
      6 C          64.0114   89.8208   13.7787 C.2     1  UNL1        0.2509
      7 O          63.4188   90.6750   12.6974 O.2     1  UNL1       -0.2727
      8 O          63.1184   89.3094   10.7142 O.2     1  UNL1       -0.2730
      9 C          62.5178   88.1303   11.4206 C.2     1  UNL1        0.2442
     10 N          61.2361   87.5308   10.9227 N.am    1  UNL1       -0.2826
     11 H          60.8419   86.7569   11.3864 H       1  UNL1        0.1549
     12 C          60.5551   88.1103    9.7184 C.ar    1  UNL1        0.0505
     13 C          60.0462   87.2048    8.6363 C.ar    1  UNL1        0.0178
     14 C          59.3652   87.7844    7.4320 C.ar    1  UNL1        0.0388
     15 C          59.1930   89.2695    7.3099 C.ar    1  UNL1        0.1454
     16 C          59.7019   90.1750    8.3921 C.ar    1  UNL1        0.0388
     17 C          60.3829   89.5954    9.5963 C.ar    1  UNL1        0.0178
     18 O          58.5119   89.8490    6.1056 O.3     1  UNL1       -0.4535
     19 C          59.2682   90.7548    5.1796 C.ar    1  UNL1        0.1454
     20 C          58.5425   91.8235    4.4173 C.ar    1  UNL1        0.0398
     21 C          59.2989   92.7293    3.4913 C.ar    1  UNL1        0.0328
     22 C          60.7810   92.5664    3.3276 C.ar    1  UNL1        0.1403
     23 F          61.5373   93.4722    2.4016 F       1  UNL1       -0.2042
     24 C          61.5067   91.4977    4.0900 C.ar    1  UNL1        0.0328
     25 C          60.7504   90.5919    5.0159 C.ar    1  UNL1        0.0398
     26 C          64.4130   84.6871   14.9468 C.3     1  UNL1        0.0281
     27 C          63.8107   83.3939   14.4833 C.ar    1  UNL1       -0.0220
     28 C          64.5644   82.5148   13.5298 C.ar    1  UNL1       -0.0020
     29 C          63.9622   81.2215   13.0663 C.ar    1  UNL1        0.0293
     30 C          62.6063   80.8075   13.5562 C.ar    1  UNL1        0.1401
     31 F          62.0040   79.5142   13.0927 F       1  UNL1       -0.2042
     32 C          61.8525   81.6867   14.5097 C.ar    1  UNL1        0.0293
     33 C          62.4548   82.9798   14.9732 C.ar    1  UNL1       -0.0020
     34 C          64.7300   90.4598   14.9299 C.3     1  UNL1        0.2138
     35 N          65.7503   91.5298   14.6765 N.ar    1  UNL1       -0.2208
     36 C          66.1280   92.6300   15.6235 C.ar    1  UNL1        0.1198
     37 C          67.1831   93.4675   14.9639 C.ar    1  UNL1        0.1441
     38 N          67.4575   92.8849   13.6092 N.ar    1  UNL1       -0.1271
     39 N          66.5720   91.6873   13.4316 N.ar    1  UNL1       -0.0633
@<TRIPOS>BOND
     1     8     9    2
     2     9    10   am
     3    10    12    1
     4    12    13   ar
     5    13    14   ar
     6    14    15   ar
     7    15    18    1
     8    18    19    1
     9    19    20   ar
    10    20    21   ar
    11    21    22   ar
    12    22    23    1
    13    22    24   ar
    14    24    25   ar
    15    15    16   ar
    16    16    17   ar
    17     1     9    1
    18     1     2    1
    19     2     3    1
    20     3    26    1
    21    26    27    1
    22    27    28   ar
    23    28    29   ar
    24    29    30   ar
    25    30    31    1
    26    30    32   ar
    27    32    33   ar
    28     3     4    1
    29     4     5    1
    30     5     6   am
    31     6     7    2
    32     6    34    1
    33    34    35    1
    34    35    36   ar
    35    36    37   ar
    36    37    38   ar
    37    38    39   ar
    38    17    12   ar
    39     5     1    1
    40    39    35   ar
    41    25    19   ar
    42    33    27   ar
    43    10    11    1
@<TRIPOS>MOLECULE
*****
 39 43 0 0 0
SMALL
GASTEIGER

@<TRIPOS>ATOM
      1 C          62.7575   85.4658   11.5170 C.3     1  UNL1        0.1522
      2 C          62.8188   83.9697   11.6049 C.3     1  UNL1        0.0313
      3 C          63.4830   83.6084   12.9005 C.3     1  UNL1        0.0264
      4 C          63.8321   84.8813   13.6132 C.3     1  UNL1        0.0942
      5 N          63.3837   86.0293   12.7581 N.am    1  UNL1       -0.2713
      6 C          63.5349   87.4850   13.0864 C.2     1  UNL1        0.2509
      7 O          63.0354   88.5257   12.1287 O.2     1  UNL1       -0.2727
      8 O          62.8750   86.3075    9.0618 O.2     1  UNL1       -0.2730
      9 C          62.1725   86.2593   10.3863 C.2     1  UNL1        0.2442
     10 N          60.8852   87.0043   10.5801 N.am    1  UNL1       -0.2826
     11 H          60.4242   86.9726   11.4494 H       1  UNL1        0.1549
     12 C          60.3003   87.7977    9.4494 C.ar    1  UNL1        0.0505
     13 C          60.5088   89.2819    9.3880 C.ar    1  UNL1        0.0178
     14 C          59.9239   90.0752    8.2573 C.ar    1  UNL1        0.0388
     15 C          59.1304   89.3844    7.1881 C.ar    1  UNL1        0.1454
     16 C          58.9219   87.9003    7.2495 C.ar    1  UNL1        0.0388
     17 C          59.5068   87.1070    8.3802 C.ar    1  UNL1        0.0178
     18 O          58.5455   90.1778    6.0574 O.3     1  UNL1       -0.4535
     19 C          59.4470   90.9285    5.1227 C.ar    1  UNL1        0.1454
     20 C          58.9060   92.0699    4.3138 C.ar    1  UNL1        0.0398
     21 C          59.8076   92.8205    3.3791 C.ar    1  UNL1        0.0328
     22 C          61.2503   92.4297    3.2533 C.ar    1  UNL1        0.1403
     23 F          62.1519   93.1803    2.3186 F       1  UNL1       -0.2042
     24 C          61.7914   91.2882    4.0622 C.ar    1  UNL1        0.0328
     25 C          60.8898   90.5376    4.9969 C.ar    1  UNL1        0.0398
     26 C          63.7510   82.2183   13.3964 C.3     1  UNL1        0.0281
     27 C          62.6121   81.2660   13.6111 C.ar    1  UNL1       -0.0220
     28 C          62.7936   79.8040   13.3287 C.ar    1  UNL1       -0.0020
     29 C          61.6547   78.8517   13.5434 C.ar    1  UNL1        0.0293
     30 C          60.3345   79.3614   14.0406 C.ar    1  UNL1        0.1401
     31 F          59.1956   78.4091   14.2553 F       1  UNL1       -0.2042
     32 C          60.1531   80.8235   14.3230 C.ar    1  UNL1        0.0293
     33 C          61.2919   81.7757   14.1082 C.ar    1  UNL1       -0.0020
     34 C          64.1858   87.9001   14.3726 C.3     1  UNL1        0.2138
     35 N          64.1883   89.3437   14.7802 N.ar    1  UNL1       -0.2208
     36 C          65.1730   90.3839   14.3350 C.ar    1  UNL1        0.1198
     37 C          64.7997   91.6835   14.9843 C.ar    1  UNL1        0.1441
     38 N          63.5844   91.4465   15.8308 N.ar    1  UNL1       -0.1271
     39 N          63.2064   90.0004   15.7047 N.ar    1  UNL1       -0.0633
@<TRIPOS>BOND
     1     8     9    2
     2     9    10   am
     3    10    12    1
     4    12    13   ar
     5    13    14   ar
     6    14    15   ar
     7    15    18    1
     8    18    19    1
     9    19    20   ar
    10    20    21   ar
    11    21    22   ar
    12    22    23    1
    13    22    24   ar
    14    24    25   ar
    15    15    16   ar
    16    16    17   ar
    17     1     9    1
    18     1     2    1
    19     2     3    1
    20     3    26    1
    21    26    27    1
    22    27    28   ar
    23    28    29   ar
    24    29    30   ar
    25    30    31    1
    26    30    32   ar
    27    32    33   ar
    28     3     4    1
    29     4     5    1
    30     5     6   am
    31     6     7    2
    32     6    34    1
    33    34    35    1
    34    35    36   ar
    35    36    37   ar
    36    37    38   ar
    37    38    39   ar
    38    17    12   ar
    39     5     1    1
    40    39    35   ar
    41    25    19   ar
    42    33    27   ar
    43    10    11    1
@<TRIPOS>MOLECULE
*****
 39 43 0 0 0
SMALL
GASTEIGER

@<TRIPOS>ATOM
      1 C          61.8447   93.7637    0.9181 C.3     1  UNL1        0.1522
      2 C          63.2502   94.2393    0.6980 C.3     1  UNL1        0.0313
      3 C          63.2330   95.2308   -0.4276 C.3     1  UNL1        0.0264
      4 C          61.8169   95.3678   -0.9031 C.3     1  UNL1        0.0942
      5 N          60.9590   94.4611   -0.0714 N.am    1  UNL1       -0.2713
      6 C          59.4757   94.2830   -0.2056 C.2     1  UNL1        0.2509
      7 O          58.7488   93.3354    0.7021 O.2     1  UNL1       -0.2727
      8 O          62.0146   91.3965    1.9754 O.2     1  UNL1       -0.2730
      9 C          61.4027   92.7657    1.9471 C.2     1  UNL1        0.2442
     10 N          60.3487   93.1370    2.9477 N.am    1  UNL1       -0.2826
     11 H          59.9471   94.0357    2.9291 H       1  UNL1        0.1549
     12 C          59.9067   92.1391    3.9767 C.ar    1  UNL1        0.0505
     13 C          60.9156   91.2498    4.6410 C.ar    1  UNL1        0.0178
     14 C          60.4735   90.2520    5.6700 C.ar    1  UNL1        0.0388
     15 C          59.0225   90.1433    6.0346 C.ar    1  UNL1        0.1454
     16 C          58.0137   91.0326    5.3703 C.ar    1  UNL1        0.0388
     17 C          58.4557   92.0305    4.3414 C.ar    1  UNL1        0.0178
     18 O          58.5805   89.1454    7.0637 O.3     1  UNL1       -0.4535
     19 C          59.5999   88.4150    7.8866 C.ar    1  UNL1        0.1454
     20 C          60.4170   89.1585    8.9013 C.ar    1  UNL1        0.0398
     21 C          61.4365   88.4280    9.7242 C.ar    1  UNL1        0.0328
     22 C          61.6388   86.9542    9.5324 C.ar    1  UNL1        0.1403
     23 F          62.6583   86.2238   10.3553 F       1  UNL1       -0.2042
     24 C          60.8218   86.2107    8.5177 C.ar    1  UNL1        0.0328
     25 C          59.8023   86.9411    7.6948 C.ar    1  UNL1        0.0398
     26 C          64.4230   95.9575   -0.9806 C.3     1  UNL1        0.0281
     27 C          64.7859   95.8096   -2.4285 C.ar    1  UNL1       -0.0220
     28 C          64.3100   94.6162   -3.2028 C.ar    1  UNL1       -0.0020
     29 C          64.6729   94.4683   -4.6507 C.ar    1  UNL1        0.0293
     30 C          65.5117   95.5136   -5.3242 C.ar    1  UNL1        0.1401
     31 F          65.8746   95.3657   -6.7721 F       1  UNL1       -0.2042
     32 C          65.9876   96.7070   -4.5499 C.ar    1  UNL1        0.0293
     33 C          65.6247   96.8549   -3.1021 C.ar    1  UNL1       -0.0020
     34 C          58.7191   95.0525   -1.2474 C.3     1  UNL1        0.2138
     35 N          57.2481   94.8219   -1.4295 N.ar    1  UNL1       -0.2208
     36 C          56.1915   95.8841   -1.5025 C.ar    1  UNL1        0.1198
     37 C          54.8659   95.2072   -1.6887 C.ar    1  UNL1        0.1441
     38 N          55.1033   93.7267   -1.7308 N.ar    1  UNL1       -0.1271
     39 N          56.5756   93.4886   -1.5706 N.ar    1  UNL1       -0.0633
@<TRIPOS>BOND
     1     8     9    2
     2     9    10   am
     3    10    12    1
     4    12    13   ar
     5    13    14   ar
     6    14    15   ar
     7    15    18    1
     8    18    19    1
     9    19    20   ar
    10    20    21   ar
    11    21    22   ar
    12    22    23    1
    13    22    24   ar
    14    24    25   ar
    15    15    16   ar
    16    16    17   ar
    17     1     9    1
    18     1     2    1
    19     2     3    1
    20     3    26    1
    21    26    27    1
    22    27    28   ar
    23    28    29   ar
    24    29    30   ar
    25    30    31    1
    26    30    32   ar
    27    32    33   ar
    28     3     4    1
    29     4     5    1
    30     5     6   am
    31     6     7    2
    32     6    34    1
    33    34    35    1
    34    35    36   ar
    35    36    37   ar
    36    37    38   ar
    37    38    39   ar
    38    17    12   ar
    39     5     1    1
    40    39    35   ar
    41    25    19   ar
    42    33    27   ar
    43    10    11    1
@<TRIPOS>MOLECULE
*****
 39 43 0 0 0
SMALL
GASTEIGER

@<TRIPOS>ATOM
      1 C          60.9483   88.7832   10.0508 C.3     1  UNL1        0.1522
      2 C          60.1096   89.4672    9.0122 C.3     1  UNL1        0.0313
      3 C          59.6796   88.4361    8.0110 C.3     1  UNL1        0.0264
      4 C          60.2528   87.1150    8.4310 C.3     1  UNL1        0.0942
      5 N          61.0368   87.3295    9.6916 N.am    1  UNL1       -0.2713
      6 C          61.7791   86.2755   10.4584 C.2     1  UNL1        0.2509
      7 O          62.5225   86.6414   11.7088 O.2     1  UNL1       -0.2727
      8 O          60.7369   90.1529   12.2484 O.2     1  UNL1       -0.2730
      9 C          61.5866   89.4381   11.2399 C.2     1  UNL1        0.2442
     10 N          63.0744   89.3781   11.4205 N.am    1  UNL1       -0.2826
     11 H          63.6321   88.9089   10.7586 H       1  UNL1        0.1549
     12 C          63.7127   90.0329   12.6096 C.ar    1  UNL1        0.0505
     13 C          63.6954   89.3464   13.9431 C.ar    1  UNL1        0.0178
     14 C          64.3336   90.0012   15.1321 C.ar    1  UNL1        0.0388
     15 C          64.9891   91.3426   14.9876 C.ar    1  UNL1        0.1454
     16 C          65.0064   92.0292   13.6541 C.ar    1  UNL1        0.0388
     17 C          64.3682   91.3743   12.4651 C.ar    1  UNL1        0.0178
     18 O          65.6273   91.9975   16.1767 O.3     1  UNL1       -0.4535
     19 C          66.9728   92.6470   16.0430 C.ar    1  UNL1        0.1454
     20 C          68.2033   91.9256   16.5073 C.ar    1  UNL1        0.0398
     21 C          69.5488   92.5752   16.3735 C.ar    1  UNL1        0.0328
     22 C          69.6637   93.9460   15.7755 C.ar    1  UNL1        0.1403
     23 F          71.0092   94.5954   15.6418 F       1  UNL1       -0.2042
     24 C          68.4332   94.6673   15.3112 C.ar    1  UNL1        0.0328
     25 C          67.0878   94.0178   15.4450 C.ar    1  UNL1        0.0398
     26 C          58.8265   88.6829    6.8023 C.3     1  UNL1        0.0281
     27 C          59.0720   89.8886    5.9443 C.ar    1  UNL1       -0.0220
     28 C          60.4614   90.2053    5.4761 C.ar    1  UNL1       -0.0020
     29 C          60.7070   91.4110    4.6182 C.ar    1  UNL1        0.0293
     30 C          59.5633   92.2998    4.2285 C.ar    1  UNL1        0.1401
     31 F          59.8089   93.5055    3.3706 F       1  UNL1       -0.2042
     32 C          58.1739   91.9830    4.6969 C.ar    1  UNL1        0.0293
     33 C          57.9283   90.7774    5.5547 C.ar    1  UNL1       -0.0020
     34 C          61.7780   84.8556    9.9749 C.3     1  UNL1        0.2138
     35 N          62.8202   83.8951   10.4661 N.ar    1  UNL1       -0.2208
     36 C          62.8415   83.2284   11.8096 C.ar    1  UNL1        0.1198
     37 C          64.0586   82.3539   11.8738 C.ar    1  UNL1        0.1441
     38 N          64.7893   82.4802   10.5699 N.ar    1  UNL1       -0.1271
     39 N          64.0240   83.4327    9.6999 N.ar    1  UNL1       -0.0633
@<TRIPOS>BOND
     1     8     9    2
     2     9    10   am
     3    10    12    1
     4    12    13   ar
     5    13    14   ar
     6    14    15   ar
     7    15    18    1
     8    18    19    1
     9    19    20   ar
    10    20    21   ar
    11    21    22   ar
    12    22    23    1
    13    22    24   ar
    14    24    25   ar
    15    15    16   ar
    16    16    17   ar
    17     1     9    1
    18     1     2    1
    19     2     3    1
    20     3    26    1
    21    26    27    1
    22    27    28   ar
    23    28    29   ar
    24    29    30   ar
    25    30    31    1
    26    30    32   ar
    27    32    33   ar
    28     3     4    1
    29     4     5    1
    30     5     6   am
    31     6     7    2
    32     6    34    1
    33    34    35    1
    34    35    36   ar
    35    36    37   ar
    36    37    38   ar
    37    38    39   ar
    38    17    12   ar
    39     5     1    1
    40    39    35   ar
    41    25    19   ar
    42    33    27   ar
    43    10    11    1
@<TRIPOS>MOLECULE
*****
 39 43 0 0 0
SMALL
GASTEIGER

@<TRIPOS>ATOM
      1 C          60.4654   87.6739    8.7537 C.3     1  UNL1        0.1522
      2 C          60.9385   86.2523    8.6821 C.3     1  UNL1        0.0313
      3 C          61.3760   85.8396   10.0564 C.3     1  UNL1        0.0264
      4 C          61.1732   87.0063   10.9772 C.3     1  UNL1        0.0942
      5 N          60.6105   88.1400   10.1721 N.am    1  UNL1       -0.2713
      6 C          60.2552   89.5007   10.6937 C.2     1  UNL1        0.2509
      7 O          59.6987   90.5384    9.7644 O.2     1  UNL1       -0.2727
      8 O          58.6588   88.0925    6.9341 O.2     1  UNL1       -0.2730
      9 C          59.9396   88.4868    7.6079 C.2     1  UNL1        0.2442
     10 N          60.6946   89.6940    7.1360 N.am    1  UNL1       -0.2826
     11 H          61.5352   89.9528    7.5783 H       1  UNL1        0.1549
     12 C          60.1687   90.5069    5.9902 C.ar    1  UNL1        0.0505
     13 C          61.1138   91.0493    4.9594 C.ar    1  UNL1        0.0178
     14 C          60.5880   91.8621    3.8137 C.ar    1  UNL1        0.0388
     15 C          59.1170   92.1326    3.6988 C.ar    1  UNL1        0.1454
     16 C          58.1720   91.5903    4.7296 C.ar    1  UNL1        0.0388
     17 C          58.6978   90.7774    5.8753 C.ar    1  UNL1        0.0178
     18 O          58.5912   92.9455    2.5530 O.3     1  UNL1       -0.4535
     19 C          59.5153   93.3768    1.4530 C.ar    1  UNL1        0.1454
     20 C          60.1553   94.7327    1.4996 C.ar    1  UNL1        0.0398
     21 C          61.0795   95.1640    0.3996 C.ar    1  UNL1        0.0328
     22 C          61.3636   94.2395   -0.7469 C.ar    1  UNL1        0.1403
     23 F          62.2877   94.6708   -1.8469 F       1  UNL1       -0.2042
     24 C          60.7236   92.8837   -0.7935 C.ar    1  UNL1        0.0328
     25 C          59.7995   92.4523    0.3064 C.ar    1  UNL1        0.0398
     26 C          61.9205   84.4963   10.4421 C.3     1  UNL1        0.0281
     27 C          62.5729   84.3073   11.7795 C.ar    1  UNL1       -0.0220
     28 C          62.6266   82.9434   12.4017 C.ar    1  UNL1       -0.0020
     29 C          63.2790   82.7544   13.7391 C.ar    1  UNL1        0.0293
     30 C          63.8777   83.9292   14.4543 C.ar    1  UNL1        0.1401
     31 F          64.5301   83.7402   15.7917 F       1  UNL1       -0.2042
     32 C          63.8240   85.2931   13.8320 C.ar    1  UNL1        0.0293
     33 C          63.1716   85.4820   12.4947 C.ar    1  UNL1       -0.0020
     34 C          60.4563   89.8238   12.1446 C.3     1  UNL1        0.2138
     35 N          61.8297   90.1373   12.6598 N.ar    1  UNL1       -0.2208
     36 C          62.9303   90.8028   11.8881 C.ar    1  UNL1        0.1198
     37 C          64.1245   90.9171   12.7886 C.ar    1  UNL1        0.1441
     38 N          63.7618   90.3221   14.1169 N.ar    1  UNL1       -0.1271
     39 N          62.3436   89.8401   14.0374 N.ar    1  UNL1       -0.0633
@<TRIPOS>BOND
     1     8     9    2
     2     9    10   am
     3    10    12    1
     4    12    13   ar
     5    13    14   ar
     6    14    15   ar
     7    15    18    1
     8    18    19    1
     9    19    20   ar
    10    20    21   ar
    11    21    22   ar
    12    22    23    1
    13    22    24   ar
    14    24    25   ar
    15    15    16   ar
    16    16    17   ar
    17     1     9    1
    18     1     2    1
    19     2     3    1
    20     3    26    1
    21    26    27    1
    22    27    28   ar
    23    28    29   ar
    24    29    30   ar
    25    30    31    1
    26    30    32   ar
    27    32    33   ar
    28     3     4    1
    29     4     5    1
    30     5     6   am
    31     6     7    2
    32     6    34    1
    33    34    35    1
    34    35    36   ar
    35    36    37   ar
    36    37    38   ar
    37    38    39   ar
    38    17    12   ar
    39     5     1    1
    40    39    35   ar
    41    25    19   ar
    42    33    27   ar
    43    10    11    1
@<TRIPOS>MOLECULE
*****
 39 43 0 0 0
SMALL
GASTEIGER

@<TRIPOS>ATOM
      1 C          62.5524   85.7116   11.5137 C.3     1  UNL1        0.1522
      2 C          62.4704   84.2219   11.6689 C.3     1  UNL1        0.0313
      3 C          63.1290   83.8542   12.9656 C.3     1  UNL1        0.0264
      4 C          63.6179   85.1167   13.6116 C.3     1  UNL1        0.0942
      5 N          63.2615   86.2646   12.7142 N.am    1  UNL1       -0.2713
      6 C          63.5616   87.7114   12.9721 C.2     1  UNL1        0.2509
      7 O          63.1413   88.7533   11.9782 O.2     1  UNL1       -0.2727
      8 O          62.8179   86.6257    9.0962 O.2     1  UNL1       -0.2730
      9 C          62.0188   86.5085   10.3602 C.2     1  UNL1        0.2442
     10 N          60.6861   87.1880   10.4707 N.am    1  UNL1       -0.2826
     11 H          60.1617   87.1110   11.3003 H       1  UNL1        0.1549
     12 C          60.1526   87.9848    9.3172 C.ar    1  UNL1        0.0505
     13 C          59.5152   87.2853    8.1535 C.ar    1  UNL1        0.0178
     14 C          58.9817   88.0821    7.0001 C.ar    1  UNL1        0.0388
     15 C          59.0855   89.5785    7.0105 C.ar    1  UNL1        0.1454
     16 C          59.7228   90.2780    8.1742 C.ar    1  UNL1        0.0388
     17 C          60.2564   89.4812    9.3276 C.ar    1  UNL1        0.0178
     18 O          58.5519   90.3753    5.8570 O.3     1  UNL1       -0.4535
     19 C          59.4983   91.0780    4.9293 C.ar    1  UNL1        0.1454
     20 C          59.0060   92.2006    4.0648 C.ar    1  UNL1        0.0398
     21 C          59.9524   92.9033    3.1371 C.ar    1  UNL1        0.0328
     22 C          61.3910   92.4833    3.0739 C.ar    1  UNL1        0.1403
     23 F          62.3373   93.1860    2.1462 F       1  UNL1       -0.2042
     24 C          61.8833   91.3607    3.9384 C.ar    1  UNL1        0.0328
     25 C          60.9369   90.6580    4.8661 C.ar    1  UNL1        0.0398
     26 C          63.2733   82.4675   13.5190 C.3     1  UNL1        0.0281
     27 C          63.0752   81.2790   12.6256 C.ar    1  UNL1       -0.0220
     28 C          62.6656   79.9603   13.2115 C.ar    1  UNL1       -0.0020
     29 C          62.4675   78.7718   12.3181 C.ar    1  UNL1        0.0293
     30 C          62.6790   78.9020   10.8388 C.ar    1  UNL1        0.1401
     31 F          62.4810   77.7135    9.9453 F       1  UNL1       -0.2042
     32 C          63.0887   80.2208   10.2529 C.ar    1  UNL1        0.0293
     33 C          63.2867   81.4092   11.1463 C.ar    1  UNL1       -0.0020
     34 C          64.2819   88.1165   14.2239 C.3     1  UNL1        0.2138
     35 N          63.7306   87.7311   15.5646 N.ar    1  UNL1       -0.2208
     36 C          63.6899   86.3448   16.1359 C.ar    1  UNL1        0.1198
     37 C          63.0573   86.4214   17.4939 C.ar    1  UNL1        0.1441
     38 N          62.7070   87.8551   17.7618 N.ar    1  UNL1       -0.1271
     39 N          63.1231   88.6645   16.5695 N.ar    1  UNL1       -0.0633
@<TRIPOS>BOND
     1     8     9    2
     2     9    10   am
     3    10    12    1
     4    12    13   ar
     5    13    14   ar
     6    14    15   ar
     7    15    18    1
     8    18    19    1
     9    19    20   ar
    10    20    21   ar
    11    21    22   ar
    12    22    23    1
    13    22    24   ar
    14    24    25   ar
    15    15    16   ar
    16    16    17   ar
    17     1     9    1
    18     1     2    1
    19     2     3    1
    20     3    26    1
    21    26    27    1
    22    27    28   ar
    23    28    29   ar
    24    29    30   ar
    25    30    31    1
    26    30    32   ar
    27    32    33   ar
    28     3     4    1
    29     4     5    1
    30     5     6   am
    31     6     7    2
    32     6    34    1
    33    34    35    1
    34    35    36   ar
    35    36    37   ar
    36    37    38   ar
    37    38    39   ar
    38    17    12   ar
    39     5     1    1
    40    39    35   ar
    41    25    19   ar
    42    33    27   ar
    43    10    11    1
@<TRIPOS>MOLECULE
*****
 39 43 0 0 0
SMALL
GASTEIGER

@<TRIPOS>ATOM
      1 C          62.6293   86.4041   11.4651 C.3     1  UNL1        0.1522
      2 C          62.6324   84.9384   11.7844 C.3     1  UNL1        0.0313
      3 C          63.2753   84.7581   13.1277 C.3     1  UNL1        0.0264
      4 C          63.6695   86.1124   13.6384 C.3     1  UNL1        0.0942
      5 N          63.2702   87.1296   12.6108 N.am    1  UNL1       -0.2713
      6 C          63.4758   88.6120   12.7113 C.2     1  UNL1        0.2509
      7 O          63.0218   89.5093   11.5984 O.2     1  UNL1       -0.2727
      8 O          62.7622   86.8058    8.9017 O.2     1  UNL1       -0.2730
      9 C          62.0813   87.0336   10.2186 C.2     1  UNL1        0.2442
     10 N          60.8525   87.8909   10.2892 N.am    1  UNL1       -0.2826
     11 H          60.4056   88.0404   11.1536 H       1  UNL1        0.1549
     12 C          60.3046   88.5205    9.0428 C.ar    1  UNL1        0.0505
     13 C          59.4142   87.7286    8.1317 C.ar    1  UNL1        0.0178
     14 C          58.8663   88.3582    6.8854 C.ar    1  UNL1        0.0388
     15 C          59.2088   89.7796    6.5501 C.ar    1  UNL1        0.1454
     16 C          60.0992   90.5714    7.4612 C.ar    1  UNL1        0.0388
     17 C          60.6471   89.9418    8.7076 C.ar    1  UNL1        0.0178
     18 O          58.6608   90.4091    5.3037 O.3     1  UNL1       -0.4535
     19 C          59.5527   91.2378    4.4276 C.ar    1  UNL1        0.1454
     20 C          58.9647   92.3108    3.5598 C.ar    1  UNL1        0.0398
     21 C          59.8567   93.1395    2.6836 C.ar    1  UNL1        0.0328
     22 C          61.3367   92.8953    2.6753 C.ar    1  UNL1        0.1403
     23 F          62.2286   93.7240    1.7991 F       1  UNL1       -0.2042
     24 C          61.9247   91.8223    3.5430 C.ar    1  UNL1        0.0328
     25 C          61.0328   90.9936    4.4191 C.ar    1  UNL1        0.0398
     26 C          63.4869   83.4529   13.8358 C.3     1  UNL1        0.0281
     27 C          63.2457   82.1603   13.1140 C.ar    1  UNL1       -0.0220
     28 C          62.7633   80.9579   13.8701 C.ar    1  UNL1       -0.0020
     29 C          62.5221   79.6653   13.1483 C.ar    1  UNL1        0.0293
     30 C          62.7632   79.5751   11.6705 C.ar    1  UNL1        0.1401
     31 F          62.5219   78.2825   10.9487 F       1  UNL1       -0.2042
     32 C          63.2455   80.7776   10.9145 C.ar    1  UNL1        0.0293
     33 C          63.4868   82.0701   11.6363 C.ar    1  UNL1       -0.0020
     34 C          64.1353   89.1971   13.9249 C.3     1  UNL1        0.2138
     35 N          64.9249   90.4674   13.8104 N.ar    1  UNL1       -0.2208
     36 C          64.6142   91.6198   12.9019 C.ar    1  UNL1        0.1198
     37 C          65.6611   92.6729   13.1144 C.ar    1  UNL1        0.1441
     38 N          66.6188   92.1712   14.1541 N.ar    1  UNL1       -0.1271
     39 N          66.1638   90.8081   14.5843 N.ar    1  UNL1       -0.0633
@<TRIPOS>BOND
     1     8     9    2
     2     9    10   am
     3    10    12    1
     4    12    13   ar
     5    13    14   ar
     6    14    15   ar
     7    15    18    1
     8    18    19    1
     9    19    20   ar
    10    20    21   ar
    11    21    22   ar
    12    22    23    1
    13    22    24   ar
    14    24    25   ar
    15    15    16   ar
    16    16    17   ar
    17     1     9    1
    18     1     2    1
    19     2     3    1
    20     3    26    1
    21    26    27    1
    22    27    28   ar
    23    28    29   ar
    24    29    30   ar
    25    30    31    1
    26    30    32   ar
    27    32    33   ar
    28     3     4    1
    29     4     5    1
    30     5     6   am
    31     6     7    2
    32     6    34    1
    33    34    35    1
    34    35    36   ar
    35    36    37   ar
    36    37    38   ar
    37    38    39   ar
    38    17    12   ar
    39     5     1    1
    40    39    35   ar
    41    25    19   ar
    42    33    27   ar
    43    10    11    1
@<TRIPOS>MOLECULE
*****
 39 43 0 0 0
SMALL
GASTEIGER

@<TRIPOS>ATOM
      1 C          62.1581   93.6837    1.2684 C.3     1  UNL1        0.1522
      2 C          63.5893   93.9045    0.8775 C.3     1  UNL1        0.0313
      3 C          63.6199   94.9476   -0.2001 C.3     1  UNL1        0.0264
      4 C          62.2075   95.3714   -0.4751 C.3     1  UNL1        0.0942
      5 N          61.3041   94.5903    0.4325 N.am    1  UNL1       -0.2713
      6 C          59.8092   94.6969    0.4934 C.2     1  UNL1        0.2509
      7 O          59.0352   93.8470    1.4570 O.2     1  UNL1       -0.2727
      8 O          62.5110   91.5489    2.7066 O.2     1  UNL1       -0.2730
      9 C          61.6671   92.7246    2.3120 C.2     1  UNL1        0.2442
     10 N          60.3322   92.9412    2.9610 N.am    1  UNL1       -0.2826
     11 H          59.7784   93.7128    2.7020 H       1  UNL1        0.1549
     12 C          59.8412   91.9821    4.0046 C.ar    1  UNL1        0.0505
     13 C          60.8176   91.1257    4.7550 C.ar    1  UNL1        0.0178
     14 C          60.3266   90.1666    5.7986 C.ar    1  UNL1        0.0388
     15 C          58.8591   90.0640    6.0918 C.ar    1  UNL1        0.1454
     16 C          57.8827   90.9204    5.3414 C.ar    1  UNL1        0.0388
     17 C          58.3737   91.8794    4.2979 C.ar    1  UNL1        0.0178
     18 O          58.3681   89.1049    7.1354 O.3     1  UNL1       -0.4535
     19 C          59.3377   88.4760    8.0916 C.ar    1  UNL1        0.1454
     20 C          60.3854   89.3169    8.7589 C.ar    1  UNL1        0.0398
     21 C          61.3550   88.6879    9.7152 C.ar    1  UNL1        0.0328
     22 C          61.2769   87.2181   10.0041 C.ar    1  UNL1        0.1403
     23 F          62.2464   86.5892   10.9602 F       1  UNL1       -0.2042
     24 C          60.2292   86.3772    9.3368 C.ar    1  UNL1        0.0328
     25 C          59.2596   87.0061    8.3806 C.ar    1  UNL1        0.0398
     26 C          64.8473   95.4744   -0.8827 C.3     1  UNL1        0.0281
     27 C          64.8880   95.5767   -2.3786 C.ar    1  UNL1       -0.0220
     28 C          65.5928   96.7280   -3.0327 C.ar    1  UNL1       -0.0020
     29 C          65.6335   96.8304   -4.5286 C.ar    1  UNL1        0.0293
     30 C          64.9694   95.7814   -5.3705 C.ar    1  UNL1        0.1401
     31 F          65.0101   95.8838   -6.8664 F       1  UNL1       -0.2042
     32 C          64.2646   94.6301   -4.7163 C.ar    1  UNL1        0.0293
     33 C          64.2239   94.5278   -3.2205 C.ar    1  UNL1       -0.0020
     34 C          59.0881   95.6536   -0.4093 C.3     1  UNL1        0.2138
     35 N          58.4446   95.1557   -1.6694 N.ar    1  UNL1       -0.2208
     36 C          57.4120   94.0718   -1.7634 C.ar    1  UNL1        0.1198
     37 C          57.0500   93.9005   -3.2090 C.ar    1  UNL1        0.1441
     38 N          57.8590   94.8785   -4.0084 N.ar    1  UNL1       -0.1271
     39 N          58.7209   95.6543   -3.0569 N.ar    1  UNL1       -0.0633
@<TRIPOS>BOND
     1     8     9    2
     2     9    10   am
     3    10    12    1
     4    12    13   ar
     5    13    14   ar
     6    14    15   ar
     7    15    18    1
     8    18    19    1
     9    19    20   ar
    10    20    21   ar
    11    21    22   ar
    12    22    23    1
    13    22    24   ar
    14    24    25   ar
    15    15    16   ar
    16    16    17   ar
    17     1     9    1
    18     1     2    1
    19     2     3    1
    20     3    26    1
    21    26    27    1
    22    27    28   ar
    23    28    29   ar
    24    29    30   ar
    25    30    31    1
    26    30    32   ar
    27    32    33   ar
    28     3     4    1
    29     4     5    1
    30     5     6   am
    31     6     7    2
    32     6    34    1
    33    34    35    1
    34    35    36   ar
    35    36    37   ar
    36    37    38   ar
    37    38    39   ar
    38    17    12   ar
    39     5     1    1
    40    39    35   ar
    41    25    19   ar
    42    33    27   ar
    43    10    11    1
