@<TRIPOS>MOLECULE
*****
 32 34 0 0 0
SMALL
GASTEIGER

@<TRIPOS>ATOM
      1 C          64.7726   84.7770   15.7229 C.3     1  UNL1        0.1384
      2 N          64.0253   84.8512   14.4244 N.ar    1  UNL1       -0.2481
      3 C          63.7511   86.1834   13.7920 C.ar    1  UNL1        0.2113
      4 C          63.0038   86.2576   12.4935 C.ar    1  UNL1        0.1488
      5 C          62.5307   84.9995   11.8275 C.ar    1  UNL1        0.2696
      6 O          61.7835   85.0737   10.5290 O.2     1  UNL1       -0.2669
      7 N          62.8050   83.6673   12.4599 N.ar    1  UNL1       -0.2467
      8 C          62.3319   82.4092   11.7939 C.3     1  UNL1        0.1382
      9 C          63.5523   83.5932   13.7584 C.ar    1  UNL1        0.3363
     10 O          63.8265   82.2609   14.3909 O.2     1  UNL1       -0.2461
     11 C          62.7296   87.5897   11.8610 C.3     1  UNL1        0.3731
     12 N          63.2026   88.8477   12.5270 N.2     1  UNL1       -0.0517
     13 C          63.9499   88.7736   13.8255 C.2     1  UNL1        0.3217
     14 N          64.2241   87.4414   14.4580 N.pl3   1  UNL1       -0.1852
     15 H          64.7146   87.3927   15.3102 H       1  UNL1        0.2999
     16 C          64.4229   90.0317   14.4915 C.ar    1  UNL1        0.0882
     17 C          63.8020   90.4759   15.7826 C.ar    1  UNL1        0.0078
     18 C          64.2750   91.7340   16.4486 C.ar    1  UNL1        0.0065
     19 C          65.3691   92.5478   15.8234 C.ar    1  UNL1        0.0753
     20 C          65.9900   92.1035   14.5323 C.ar    1  UNL1        0.2903
     21 C          65.5170   90.8455   13.8663 C.ar    1  UNL1        0.0826
     22 N          67.0841   92.9173   13.9071 N.pl3   1  UNL1        0.0809
     23 O          68.4096   93.0476   14.5969 O.2     1  UNL1        0.0415
     24 O          66.8525   93.6008   12.5920 O.co2   1  UNL1       -0.5760
     25 C          62.2309   88.6079   10.8787 C.3     1  UNL1        0.4512
     26 F          61.7322   89.6259    9.8965 F       1  UNL1       -0.1654
     27 F          62.7568   88.4508   10.3006 F       1  UNL1       -0.1654
     28 F          61.1727   89.0305   11.8541 F       1  UNL1       -0.1654
     29 C          62.0833   86.6853   10.8538 C.3     1  UNL1        0.4512
     30 F          61.4370   85.7809    9.8467 F       1  UNL1       -0.1654
     31 F          60.9132   86.6701   11.1805 F       1  UNL1       -0.1654
     32 F          62.7418   86.5179   10.4369 F       1  UNL1       -0.1654
@<TRIPOS>UNITY_ATOM_ATTR
22 1
charge 1
24 1
charge -1
@<TRIPOS>BOND
     1     1     2    1
     2     2     3   ar
     3     3     4   ar
     4     4     5   ar
     5     5     6    2
     6     5     7   ar
     7     7     8    1
     8     7     9   ar
     9     9    10    2
    10     4    11    1
    11    11    25    1
    12    25    26    1
    13    25    27    1
    14    25    28    1
    15    11    29    1
    16    29    30    1
    17    29    31    1
    18    29    32    1
    19    11    12    1
    20    12    13    2
    21    13    16    1
    22    16    17   ar
    23    17    18   ar
    24    18    19   ar
    25    19    20   ar
    26    20    22    1
    27    22    23    2
    28    22    24    1
    29    20    21   ar
    30    13    14    1
    31     9     2   ar
    32    21    16   ar
    33    14     3    1
    34    14    15    1
@<TRIPOS>MOLECULE
*****
 32 34 0 0 0
SMALL
GASTEIGER

@<TRIPOS>ATOM
      1 C          66.7067   92.3145   15.6845 C.3     1  UNL1        0.1384
      2 N          66.0569   92.3638   14.3335 N.ar    1  UNL1       -0.2481
      3 C          65.1324   91.2629   13.9052 C.ar    1  UNL1        0.2113
      4 C          64.4826   91.3122   12.5541 C.ar    1  UNL1        0.1488
      5 C          64.7574   92.4624   11.6313 C.ar    1  UNL1        0.2696
      6 O          64.1076   92.5117   10.2802 O.2     1  UNL1       -0.2669
      7 N          65.6818   93.5633   12.0596 N.ar    1  UNL1       -0.2467
      8 C          65.9566   94.7135   11.1367 C.3     1  UNL1        0.1382
      9 C          66.3316   93.5140   13.4106 C.ar    1  UNL1        0.3363
     10 O          67.2561   94.6149   13.8389 O.2     1  UNL1       -0.2461
     11 C          63.5582   90.2113   12.1259 C.3     1  UNL1        0.3731
     12 N          63.2835   89.0612   13.0487 N.2     1  UNL1       -0.0517
     13 C          63.9332   89.0119   14.3998 C.2     1  UNL1        0.3217
     14 N          64.8577   90.1127   14.8280 N.pl3   1  UNL1       -0.1852
     15 H          65.2841   90.0804   15.7148 H       1  UNL1        0.2999
     16 C          63.6585   87.8616   15.3226 C.ar    1  UNL1        0.0882
     17 C          63.1628   88.1188   16.7147 C.ar    1  UNL1        0.0078
     18 C          62.8880   86.9686   17.6376 C.ar    1  UNL1        0.0065
     19 C          63.1090   85.5612   17.1682 C.ar    1  UNL1        0.0753
     20 C          63.6047   85.3040   15.7759 C.ar    1  UNL1        0.2903
     21 C          63.8794   86.4542   14.8532 C.ar    1  UNL1        0.0826
     22 N          63.8257   83.8966   15.3065 N.pl3   1  UNL1        0.0809
     23 O          65.0582   83.5516   14.5244 O.2     1  UNL1        0.0415
     24 O          62.8140   82.8341   15.6193 O.co2   1  UNL1       -0.5760
     25 C          62.6154   89.4137   11.2744 C.3     1  UNL1        0.4512
     26 F          61.6726   88.6161   10.4230 F       1  UNL1       -0.1654
     27 F          63.1426   89.2068   10.7134 F       1  UNL1       -0.1654
     28 F          61.5003   89.7081   12.2335 F       1  UNL1       -0.1654
     29 C          63.5055   91.0845   10.9073 C.3     1  UNL1        0.4512
     30 F          63.4527   91.9577    9.6889 F       1  UNL1       -0.1654
     31 F          62.3969   91.5800   10.9485 F       1  UNL1       -0.1654
     32 F          64.2392   90.9233   10.6405 F       1  UNL1       -0.1654
@<TRIPOS>UNITY_ATOM_ATTR
22 1
charge 1
24 1
charge -1
@<TRIPOS>BOND
     1     1     2    1
     2     2     3   ar
     3     3     4   ar
     4     4     5   ar
     5     5     6    2
     6     5     7   ar
     7     7     8    1
     8     7     9   ar
     9     9    10    2
    10     4    11    1
    11    11    25    1
    12    25    26    1
    13    25    27    1
    14    25    28    1
    15    11    29    1
    16    29    30    1
    17    29    31    1
    18    29    32    1
    19    11    12    1
    20    12    13    2
    21    13    16    1
    22    16    17   ar
    23    17    18   ar
    24    18    19   ar
    25    19    20   ar
    26    20    22    1
    27    22    23    2
    28    22    24    1
    29    20    21   ar
    30    13    14    1
    31     9     2   ar
    32    21    16   ar
    33    14     3    1
    34    14    15    1
@<TRIPOS>MOLECULE
*****
 32 34 0 0 0
SMALL
GASTEIGER

@<TRIPOS>ATOM
      1 C          64.5607   87.7879   14.9534 C.3     1  UNL1        0.1384
      2 N          63.9213   88.2490   13.6773 N.ar    1  UNL1       -0.2481
      3 C          63.2532   87.2568   12.7720 C.ar    1  UNL1        0.2113
      4 C          62.6138   87.7179   11.4958 C.ar    1  UNL1        0.1488
      5 C          62.6425   89.1711   11.1249 C.ar    1  UNL1        0.2696
      6 O          62.0031   89.6322    9.8488 O.2     1  UNL1       -0.2669
      7 N          63.3105   90.1631   12.0302 N.ar    1  UNL1       -0.2467
      8 C          63.3392   91.6163   11.6593 C.3     1  UNL1        0.1382
      9 C          63.9499   89.7021   13.3064 C.ar    1  UNL1        0.3363
     10 O          64.6180   90.6942   14.2116 O.2     1  UNL1       -0.2461
     11 C          61.9458   86.7259   10.5906 C.3     1  UNL1        0.3731
     12 N          61.9172   85.2728   10.9615 N.2     1  UNL1       -0.0517
     13 C          62.5566   84.8117   12.2376 C.2     1  UNL1        0.3217
     14 N          63.2246   85.8037   13.1429 N.pl3   1  UNL1       -0.1852
     15 H          63.6443   85.5011   13.9805 H       1  UNL1        0.2999
     16 C          62.5279   83.3585   12.6085 C.ar    1  UNL1        0.0882
     17 C          62.3368   82.9535   14.0401 C.ar    1  UNL1        0.0078
     18 C          62.3081   81.5003   14.4110 C.ar    1  UNL1        0.0065
     19 C          62.4706   80.4522   13.3502 C.ar    1  UNL1        0.0753
     20 C          62.6617   80.8573   11.9186 C.ar    1  UNL1        0.2903
     21 C          62.6904   82.3104   11.5478 C.ar    1  UNL1        0.0826
     22 N          62.8242   79.8092   10.8579 N.pl3   1  UNL1        0.0809
     23 O          62.6716   78.3585   11.2073 O.2     1  UNL1        0.0415
     24 O          63.1392   80.2119    9.4477 O.co2   1  UNL1       -0.5760
     25 C          61.1974   86.1716    9.4146 C.3     1  UNL1        0.4512
     26 F          60.4492   85.6173    8.2387 F       1  UNL1       -0.1654
     27 F          60.4643   86.2636    9.7139 F       1  UNL1       -0.1654
     28 F          62.4954   85.9292    8.7029 F       1  UNL1       -0.1654
     29 C          61.7146   87.9865    9.8113 C.3     1  UNL1        0.4512
     30 F          61.4832   89.2471    9.0320 F       1  UNL1       -0.1654
     31 F          60.5951   88.3307   10.1345 F       1  UNL1       -0.1654
     32 F          62.4205   88.0029    9.4414 F       1  UNL1       -0.1654
@<TRIPOS>UNITY_ATOM_ATTR
22 1
charge 1
24 1
charge -1
@<TRIPOS>BOND
     1     1     2    1
     2     2     3   ar
     3     3     4   ar
     4     4     5   ar
     5     5     6    2
     6     5     7   ar
     7     7     8    1
     8     7     9   ar
     9     9    10    2
    10     4    11    1
    11    11    25    1
    12    25    26    1
    13    25    27    1
    14    25    28    1
    15    11    29    1
    16    29    30    1
    17    29    31    1
    18    29    32    1
    19    11    12    1
    20    12    13    2
    21    13    16    1
    22    16    17   ar
    23    17    18   ar
    24    18    19   ar
    25    19    20   ar
    26    20    22    1
    27    22    23    2
    28    22    24    1
    29    20    21   ar
    30    13    14    1
    31     9     2   ar
    32    21    16   ar
    33    14     3    1
    34    14    15    1
@<TRIPOS>MOLECULE
*****
 32 34 0 0 0
SMALL
GASTEIGER

@<TRIPOS>ATOM
      1 C          61.7911   90.6217   10.1483 C.3     1  UNL1        0.1384
      2 N          61.9262   89.1731   10.5133 N.ar    1  UNL1       -0.2481
      3 C          62.6937   88.7771   11.7398 C.ar    1  UNL1        0.2113
      4 C          62.8289   87.3285   12.1048 C.ar    1  UNL1        0.1488
      5 C          62.1965   86.2759   11.2433 C.ar    1  UNL1        0.2696
      6 O          62.3316   84.8272   11.6084 O.2     1  UNL1       -0.2669
      7 N          61.4290   86.6718   10.0169 N.ar    1  UNL1       -0.2467
      8 C          60.7965   85.6192    9.1555 C.3     1  UNL1        0.1382
      9 C          61.2938   88.1205    9.6519 C.ar    1  UNL1        0.3363
     10 O          60.5263   88.5164    8.4254 O.2     1  UNL1       -0.2461
     11 C          63.5964   86.9325   13.3312 C.3     1  UNL1        0.3731
     12 N          64.2287   87.9852   14.1926 N.2     1  UNL1       -0.0517
     13 C          64.0936   89.4338   13.8276 C.2     1  UNL1        0.3217
     14 N          63.3261   89.8298   12.6012 N.pl3   1  UNL1       -0.1852
     15 H          63.2374   90.7806   12.3616 H       1  UNL1        0.2999
     16 C          64.7260   90.4865   14.6890 C.ar    1  UNL1        0.0882
     17 C          64.0103   90.9873   15.9084 C.ar    1  UNL1        0.0078
     18 C          64.6427   92.0400   16.7698 C.ar    1  UNL1        0.0065
     19 C          65.9908   92.5917   16.4119 C.ar    1  UNL1        0.0753
     20 C          66.7066   92.0908   15.1925 C.ar    1  UNL1        0.2903
     21 C          66.0741   91.0382   14.3311 C.ar    1  UNL1        0.0826
     22 N          68.0547   92.6425   14.8345 N.pl3   1  UNL1        0.0809
     23 O          68.7416   93.6032   15.7593 O.2     1  UNL1        0.0415
     24 O          68.7160   92.2335   13.5517 O.co2   1  UNL1       -0.5760
     25 C          64.2194   86.0665   14.3857 C.3     1  UNL1        0.4512
     26 F          64.8424   85.2005   15.4401 F       1  UNL1       -0.1654
     27 F          64.6677   85.6249   13.8963 F       1  UNL1       -0.1654
     28 F          63.4461   86.7974   15.4428 F       1  UNL1       -0.1654
     29 C          63.1803   85.5791   12.8360 C.3     1  UNL1        0.4512
     30 F          62.7643   84.2257   12.3409 F       1  UNL1       -0.1654
     31 F          62.2821   85.2546   13.5870 F       1  UNL1       -0.1654
     32 F          63.7016   85.5312   12.2347 F       1  UNL1       -0.1654
@<TRIPOS>UNITY_ATOM_ATTR
22 1
charge 1
24 1
charge -1
@<TRIPOS>BOND
     1     1     2    1
     2     2     3   ar
     3     3     4   ar
     4     4     5   ar
     5     5     6    2
     6     5     7   ar
     7     7     8    1
     8     7     9   ar
     9     9    10    2
    10     4    11    1
    11    11    25    1
    12    25    26    1
    13    25    27    1
    14    25    28    1
    15    11    29    1
    16    29    30    1
    17    29    31    1
    18    29    32    1
    19    11    12    1
    20    12    13    2
    21    13    16    1
    22    16    17   ar
    23    17    18   ar
    24    18    19   ar
    25    19    20   ar
    26    20    22    1
    27    22    23    2
    28    22    24    1
    29    20    21   ar
    30    13    14    1
    31     9     2   ar
    32    21    16   ar
    33    14     3    1
    34    14    15    1
@<TRIPOS>MOLECULE
*****
 32 34 0 0 0
SMALL
GASTEIGER

@<TRIPOS>ATOM
      1 C          65.2354   92.6107    9.8658 C.3     1  UNL1        0.1384
      2 N          65.3063   92.5211   11.3615 N.ar    1  UNL1       -0.2481
      3 C          64.5905   91.4169   12.0815 C.ar    1  UNL1        0.2113
      4 C          64.6614   91.3273   13.5771 C.ar    1  UNL1        0.1488
      5 C          65.4481   92.3420   14.3528 C.ar    1  UNL1        0.2696
      6 O          65.5190   92.2525   15.8484 O.2     1  UNL1       -0.2669
      7 N          66.1639   93.4462   13.6328 N.ar    1  UNL1       -0.2467
      8 C          66.9506   94.4609   14.4084 C.3     1  UNL1        0.1382
      9 C          66.0930   93.5357   12.1371 C.ar    1  UNL1        0.3363
     10 O          66.8088   94.6400   11.4171 O.2     1  UNL1       -0.2461
     11 C          63.9456   90.2232   14.2971 C.3     1  UNL1        0.3731
     12 N          63.1590   89.2086   13.5215 N.2     1  UNL1       -0.0517
     13 C          63.0881   89.2981   12.0258 C.2     1  UNL1        0.3217
     14 N          63.8038   90.4023   11.3058 N.pl3   1  UNL1       -0.1852
     15 H          63.7573   90.4610   10.3242 H       1  UNL1        0.2999
     16 C          62.3014   88.2834   11.2502 C.ar    1  UNL1        0.0882
     17 C          62.4327   86.8248   11.5746 C.ar    1  UNL1        0.0078
     18 C          61.6460   85.8101   10.7990 C.ar    1  UNL1        0.0065
     19 C          60.7279   86.2541    9.6989 C.ar    1  UNL1        0.0753
     20 C          60.5966   87.7128    9.3745 C.ar    1  UNL1        0.2903
     21 C          61.3833   88.7274   10.1501 C.ar    1  UNL1        0.0826
     22 N          59.6786   88.1567    8.2744 N.pl3   1  UNL1        0.0809
     23 O          59.8708   89.4990    7.6331 O.2     1  UNL1        0.0415
     24 O          58.5684   87.2583    7.8157 O.co2   1  UNL1       -0.5760
     25 C          63.4423   89.3682   15.4222 C.3     1  UNL1        0.4512
     26 F          62.9391   88.5133   16.5473 F       1  UNL1       -0.1654
     27 F          62.8650   89.8603   15.6674 F       1  UNL1       -0.1654
     28 F          64.4749   88.3305   15.0955 F       1  UNL1       -0.1654
     29 C          64.5575   90.9409   15.4635 C.3     1  UNL1        0.4512
     30 F          65.1693   91.6587   16.6299 F       1  UNL1       -0.1654
     31 F          63.6387   91.5879   15.9254 F       1  UNL1       -0.1654
     32 F          65.2943   90.6475   15.3824 F       1  UNL1       -0.1654
@<TRIPOS>UNITY_ATOM_ATTR
22 1
charge 1
24 1
charge -1
@<TRIPOS>BOND
     1     1     2    1
     2     2     3   ar
     3     3     4   ar
     4     4     5   ar
     5     5     6    2
     6     5     7   ar
     7     7     8    1
     8     7     9   ar
     9     9    10    2
    10     4    11    1
    11    11    25    1
    12    25    26    1
    13    25    27    1
    14    25    28    1
    15    11    29    1
    16    29    30    1
    17    29    31    1
    18    29    32    1
    19    11    12    1
    20    12    13    2
    21    13    16    1
    22    16    17   ar
    23    17    18   ar
    24    18    19   ar
    25    19    20   ar
    26    20    22    1
    27    22    23    2
    28    22    24    1
    29    20    21   ar
    30    13    14    1
    31     9     2   ar
    32    21    16   ar
    33    14     3    1
    34    14    15    1
@<TRIPOS>MOLECULE
*****
 32 34 0 0 0
SMALL
GASTEIGER

@<TRIPOS>ATOM
      1 C          63.3382   84.4440    9.6450 C.3     1  UNL1        0.1384
      2 N          63.1977   83.8580   11.0187 N.ar    1  UNL1       -0.2481
      3 C          63.2496   84.7501   12.2235 C.ar    1  UNL1        0.2113
      4 C          63.1091   84.1642   13.5972 C.ar    1  UNL1        0.1488
      5 C          62.9166   82.6862   13.7660 C.ar    1  UNL1        0.2696
      6 O          62.7761   82.1003   15.1397 O.2     1  UNL1       -0.2669
      7 N          62.8647   81.7942   12.5612 N.ar    1  UNL1       -0.2467
      8 C          62.6722   80.3161   12.7301 C.3     1  UNL1        0.1382
      9 C          63.0052   82.3801   11.1876 C.ar    1  UNL1        0.3363
     10 O          62.9532   81.4880    9.9828 O.2     1  UNL1       -0.2461
     11 C          63.1611   85.0563   14.8019 C.3     1  UNL1        0.3731
     12 N          63.3535   86.5342   14.6331 N.2     1  UNL1       -0.0517
     13 C          63.4941   87.1201   13.2594 C.2     1  UNL1        0.3217
     14 N          63.4421   86.2281   12.0546 N.pl3   1  UNL1       -0.1852
     15 H          63.5343   86.6127   11.1530 H       1  UNL1        0.2999
     16 C          63.6865   88.5982   13.0906 C.ar    1  UNL1        0.0882
     17 C          63.1244   89.2951   11.8871 C.ar    1  UNL1        0.0078
     18 C          63.3169   90.7731   11.7183 C.ar    1  UNL1        0.0065
     19 C          64.0715   91.5542   12.7529 C.ar    1  UNL1        0.0753
     20 C          64.6337   90.8572   13.9564 C.ar    1  UNL1        0.2903
     21 C          64.4412   89.3792   14.1252 C.ar    1  UNL1        0.0826
     22 N          65.3884   91.6382   14.9910 N.pl3   1  UNL1        0.0809
     23 O          64.6508   92.2979   16.1183 O.2     1  UNL1        0.0415
     24 O          66.8806   91.7595   14.8983 O.co2   1  UNL1       -0.5760
     25 C          63.1441   85.4870   16.2387 C.3     1  UNL1        0.4512
     26 F          63.1272   85.9177   17.6754 F       1  UNL1       -0.1654
     27 F          62.3725   85.3401   16.3751 F       1  UNL1       -0.1654
     28 F          64.6047   85.8182   16.1566 F       1  UNL1       -0.1654
     29 C          62.9627   83.7278   15.4698 C.3     1  UNL1        0.4512
     30 F          62.7644   82.3995   16.1376 F       1  UNL1       -0.1654
     31 F          64.0907   83.3566   15.7267 F       1  UNL1       -0.1654
     32 F          62.1667   83.7162   15.4285 F       1  UNL1       -0.1654
@<TRIPOS>UNITY_ATOM_ATTR
22 1
charge 1
24 1
charge -1
@<TRIPOS>BOND
     1     1     2    1
     2     2     3   ar
     3     3     4   ar
     4     4     5   ar
     5     5     6    2
     6     5     7   ar
     7     7     8    1
     8     7     9   ar
     9     9    10    2
    10     4    11    1
    11    11    25    1
    12    25    26    1
    13    25    27    1
    14    25    28    1
    15    11    29    1
    16    29    30    1
    17    29    31    1
    18    29    32    1
    19    11    12    1
    20    12    13    2
    21    13    16    1
    22    16    17   ar
    23    17    18   ar
    24    18    19   ar
    25    19    20   ar
    26    20    22    1
    27    22    23    2
    28    22    24    1
    29    20    21   ar
    30    13    14    1
    31     9     2   ar
    32    21    16   ar
    33    14     3    1
    34    14    15    1
@<TRIPOS>MOLECULE
*****
 32 34 0 0 0
SMALL
GASTEIGER

@<TRIPOS>ATOM
      1 C          65.0869   93.7778    9.8814 C.3     1  UNL1        0.1384
      2 N          65.3399   93.3001   11.2806 N.ar    1  UNL1       -0.2481
      3 C          64.6799   92.0477   11.7765 C.ar    1  UNL1        0.2113
      4 C          64.9329   91.5700   13.1757 C.ar    1  UNL1        0.1488
      5 C          65.8460   92.3448   14.0791 C.ar    1  UNL1        0.2696
      6 O          66.0990   91.8672   15.4783 O.2     1  UNL1       -0.2669
      7 N          66.5060   93.5972   13.5832 N.ar    1  UNL1       -0.2467
      8 C          67.4191   94.3720   14.4866 C.3     1  UNL1        0.1382
      9 C          66.2530   94.0749   12.1840 C.ar    1  UNL1        0.3363
     10 O          66.9130   95.3273   11.6882 O.2     1  UNL1       -0.2461
     11 C          64.2729   90.3177   13.6716 C.3     1  UNL1        0.3731
     12 N          63.3599   89.5430   12.7682 N.2     1  UNL1       -0.0517
     13 C          63.1068   90.0206   11.3690 C.2     1  UNL1        0.3217
     14 N          63.7668   91.2730   10.8731 N.pl3   1  UNL1       -0.1852
     15 H          63.6008   91.5865    9.9548 H       1  UNL1        0.2999
     16 C          62.1937   89.2458   10.4656 C.ar    1  UNL1        0.0882
     17 C          60.8633   89.8176   10.0745 C.ar    1  UNL1        0.0078
     18 C          59.9502   89.0428    9.1712 C.ar    1  UNL1        0.0065
     19 C          60.3676   87.6962    8.6589 C.ar    1  UNL1        0.0753
     20 C          61.6982   87.1244    9.0499 C.ar    1  UNL1        0.2903
     21 C          62.6112   87.8992    9.9533 C.ar    1  UNL1        0.0826
     22 N          62.1156   85.7778    8.5376 N.pl3   1  UNL1        0.0809
     23 O          63.0411   84.9206    9.3491 O.2     1  UNL1        0.0415
     24 O          61.6074   85.2885    7.2138 O.co2   1  UNL1       -0.5760
     25 C          63.8829   89.1994   14.5922 C.3     1  UNL1        0.4512
     26 F          63.4929   88.0813   15.5128 F       1  UNL1       -0.1654
     27 F          64.5604   88.7836   14.5324 F       1  UNL1       -0.1654
     28 F          62.5507   89.8505   14.8186 F       1  UNL1       -0.1654
     29 C          65.0505   90.7041   14.8947 C.3     1  UNL1        0.4512
     30 F          65.8281   91.0905   16.1178 F       1  UNL1       -0.1654
     31 F          64.2339   91.2666   15.5967 F       1  UNL1       -0.1654
     32 F          65.7513   90.4024   14.6636 F       1  UNL1       -0.1654
@<TRIPOS>UNITY_ATOM_ATTR
22 1
charge 1
24 1
charge -1
@<TRIPOS>BOND
     1     1     2    1
     2     2     3   ar
     3     3     4   ar
     4     4     5   ar
     5     5     6    2
     6     5     7   ar
     7     7     8    1
     8     7     9   ar
     9     9    10    2
    10     4    11    1
    11    11    25    1
    12    25    26    1
    13    25    27    1
    14    25    28    1
    15    11    29    1
    16    29    30    1
    17    29    31    1
    18    29    32    1
    19    11    12    1
    20    12    13    2
    21    13    16    1
    22    16    17   ar
    23    17    18   ar
    24    18    19   ar
    25    19    20   ar
    26    20    22    1
    27    22    23    2
    28    22    24    1
    29    20    21   ar
    30    13    14    1
    31     9     2   ar
    32    21    16   ar
    33    14     3    1
    34    14    15    1
@<TRIPOS>MOLECULE
*****
 32 34 0 0 0
SMALL
GASTEIGER

@<TRIPOS>ATOM
      1 C          61.4605   86.6607    9.5591 C.3     1  UNL1        0.1384
      2 N          62.1657   87.3171   10.7088 N.ar    1  UNL1       -0.2481
      3 C          62.6133   86.4958   11.8816 C.ar    1  UNL1        0.2113
      4 C          63.3186   87.1522   13.0313 C.ar    1  UNL1        0.1488
      5 C          63.5763   88.6298   13.0082 C.ar    1  UNL1        0.2696
      6 O          64.2815   89.2861   14.1579 O.2     1  UNL1       -0.2669
      7 N          63.1287   89.4509   11.8355 N.ar    1  UNL1       -0.2467
      8 C          63.3863   90.9285   11.8124 C.3     1  UNL1        0.1382
      9 C          62.4234   88.7945   10.6858 C.ar    1  UNL1        0.3363
     10 O          61.9758   89.6158    9.5130 O.2     1  UNL1       -0.2461
     11 C          63.7662   86.3310   14.2040 C.3     1  UNL1        0.3731
     12 N          63.5085   84.8536   14.2271 N.2     1  UNL1       -0.0517
     13 C          62.8033   84.1972   13.0774 C.2     1  UNL1        0.3217
     14 N          62.3557   85.0183   11.9046 N.pl3   1  UNL1       -0.1852
     15 H          61.8928   84.5876   11.1500 H       1  UNL1        0.2999
     16 C          62.5456   82.7196   13.1004 C.ar    1  UNL1        0.0882
     17 C          62.0105   82.0709   14.3425 C.ar    1  UNL1        0.0078
     18 C          61.7528   80.5934   14.3656 C.ar    1  UNL1        0.0065
     19 C          62.0303   79.7645   13.1465 C.ar    1  UNL1        0.0753
     20 C          62.5654   80.4133   11.9044 C.ar    1  UNL1        0.2903
     21 C          62.8231   81.8908   11.8814 C.ar    1  UNL1        0.0826
     22 N          62.8429   79.5845   10.6854 N.pl3   1  UNL1        0.0809
     23 O          63.2042   80.2514    9.3913 O.2     1  UNL1        0.0415
     24 O          62.7591   78.0887   10.7604 O.co2   1  UNL1       -0.5760
     25 C          64.3770   85.9808   15.5286 C.3     1  UNL1        0.4512
     26 F          64.9877   85.6305   16.8530 F       1  UNL1       -0.1654
     27 F          63.7004   85.9797   15.9502 F       1  UNL1       -0.1654
     28 F          65.7344   85.9397   14.8917 F       1  UNL1       -0.1654
     29 C          64.2360   87.6869   14.6410 C.3     1  UNL1        0.4512
     30 F          64.7057   89.0428   15.0780 F       1  UNL1       -0.1654
     31 F          63.4853   87.9791   15.5505 F       1  UNL1       -0.1654
     32 F          64.8320   87.7570   14.1163 F       1  UNL1       -0.1654
@<TRIPOS>UNITY_ATOM_ATTR
22 1
charge 1
24 1
charge -1
@<TRIPOS>BOND
     1     1     2    1
     2     2     3   ar
     3     3     4   ar
     4     4     5   ar
     5     5     6    2
     6     5     7   ar
     7     7     8    1
     8     7     9   ar
     9     9    10    2
    10     4    11    1
    11    11    25    1
    12    25    26    1
    13    25    27    1
    14    25    28    1
    15    11    29    1
    16    29    30    1
    17    29    31    1
    18    29    32    1
    19    11    12    1
    20    12    13    2
    21    13    16    1
    22    16    17   ar
    23    17    18   ar
    24    18    19   ar
    25    19    20   ar
    26    20    22    1
    27    22    23    2
    28    22    24    1
    29    20    21   ar
    30    13    14    1
    31     9     2   ar
    32    21    16   ar
    33    14     3    1
    34    14    15    1
@<TRIPOS>MOLECULE
*****
 32 34 0 0 0
SMALL
GASTEIGER

@<TRIPOS>ATOM
      1 C          61.6281   87.7815    9.3067 C.3     1  UNL1        0.1384
      2 N          62.2721   88.2606   10.5738 N.ar    1  UNL1       -0.2481
      3 C          62.7850   87.2691   11.5759 C.ar    1  UNL1        0.2113
      4 C          63.4290   87.7482   12.8430 C.ar    1  UNL1        0.1488
      5 C          63.5602   89.2188   13.1081 C.ar    1  UNL1        0.2696
      6 O          64.2043   89.6980   14.3752 O.2     1  UNL1       -0.2669
      7 N          63.0474   90.2102   12.1061 N.ar    1  UNL1       -0.2467
      8 C          63.1786   91.6808   12.3711 C.3     1  UNL1        0.1382
      9 C          62.4034   89.7311   10.8389 C.ar    1  UNL1        0.3363
     10 O          61.8905   90.7226    9.8369 O.2     1  UNL1       -0.2461
     11 C          63.9419   86.7568   13.8450 C.3     1  UNL1        0.3731
     12 N          63.8106   85.2863   13.5799 N.2     1  UNL1       -0.0517
     13 C          63.1666   84.8072   12.3128 C.2     1  UNL1        0.3217
     14 N          62.6538   85.7986   11.3107 N.pl3   1  UNL1       -0.1852
     15 H          62.2311   85.4841   10.4791 H       1  UNL1        0.2999
     16 C          63.0354   83.3366   12.0477 C.ar    1  UNL1        0.0882
     17 C          63.5432   82.7584   10.7602 C.ar    1  UNL1        0.0078
     18 C          63.4120   81.2878   10.4951 C.ar    1  UNL1        0.0065
     19 C          62.7730   80.3955   11.5176 C.ar    1  UNL1        0.0753
     20 C          62.2651   80.9738   12.8051 C.ar    1  UNL1        0.2903
     21 C          62.3963   82.4443   13.0702 C.ar    1  UNL1        0.0826
     22 N          61.6261   80.0815   13.8276 N.pl3   1  UNL1        0.0809
     23 O          62.3336   78.8416   14.2881 O.2     1  UNL1        0.0415
     24 O          60.2794   80.4292   14.3896 O.co2   1  UNL1       -0.5760
     25 C          64.5769   86.2102   15.0892 C.3     1  UNL1        0.4512
     26 F          65.2118   85.6636   16.3334 F       1  UNL1       -0.1654
     27 F          65.3216   86.4453   14.9295 F       1  UNL1       -0.1654
     28 F          63.2429   85.6974   15.5447 F       1  UNL1       -0.1654
     29 C          64.2936   88.0376   14.5423 C.3     1  UNL1        0.4512
     30 F          64.6453   89.3182   15.2395 F       1  UNL1       -0.1654
     31 F          63.5207   88.0844   15.4785 F       1  UNL1       -0.1654
     32 F          64.8814   88.2575   14.0507 F       1  UNL1       -0.1654
@<TRIPOS>UNITY_ATOM_ATTR
22 1
charge 1
24 1
charge -1
@<TRIPOS>BOND
     1     1     2    1
     2     2     3   ar
     3     3     4   ar
     4     4     5   ar
     5     5     6    2
     6     5     7   ar
     7     7     8    1
     8     7     9   ar
     9     9    10    2
    10     4    11    1
    11    11    25    1
    12    25    26    1
    13    25    27    1
    14    25    28    1
    15    11    29    1
    16    29    30    1
    17    29    31    1
    18    29    32    1
    19    11    12    1
    20    12    13    2
    21    13    16    1
    22    16    17   ar
    23    17    18   ar
    24    18    19   ar
    25    19    20   ar
    26    20    22    1
    27    22    23    2
    28    22    24    1
    29    20    21   ar
    30    13    14    1
    31     9     2   ar
    32    21    16   ar
    33    14     3    1
    34    14    15    1
