@<TRIPOS>MOLECULE
*****
 24 26 0 0 0
SMALL
GASTEIGER

@<TRIPOS>ATOM
      1 C          63.3557   83.4699   15.1759 C.3     1  UNL1        0.0749
      2 N          63.5607   82.1986   14.4067 N.3     1  UNL1       -0.2971
      3 H          64.4649   82.2785   13.9413 H       1  UNL1        0.1233
      4 C          62.5692   81.7878   13.3589 C.3     1  UNL1        0.0689
      5 C          62.9207   81.9078   11.9055 C.3     1  UNL1        0.0218
      6 C          63.7321   83.0738   11.4240 C.3     1  UNL1        0.0294
      7 C          62.4557   85.9220    8.9727 C.ar    1  UNL1        0.0204
      8 C          61.6719   86.7811    9.9201 C.ar    1  UNL1        0.0989
      9 N          61.5748   86.4044   11.3688 N.ar    1  UNL1       -0.2426
     10 C          62.2615   85.1687   11.8701 C.ar    1  UNL1        0.0946
     11 C          63.0454   84.3096   10.9227 C.ar    1  UNL1       -0.0030
     12 C          63.1425   84.6863    9.4740 C.ar    1  UNL1       -0.0011
     13 C          64.2938   84.6241   14.9809 C.3     1  UNL1        0.0630
     14 C          63.9213   85.9867   15.4853 C.ar    1  UNL1        0.0650
     15 C          63.2527   86.1356   16.8197 C.ar    1  UNL1        0.0356
     16 C          62.8802   87.4983   17.3241 C.ar    1  UNL1        0.1033
     17 N          63.1763   88.7121   16.4940 N.ar    1  UNL1       -0.2095
     18 C          63.8449   88.5631   15.1595 C.ar    1  UNL1        0.2378
     19 N          64.2174   87.2005   14.6552 N.ar    1  UNL1       -0.2154
     20 N          64.1410   89.7769   14.3294 N.ar    1  UNL1       -0.2558
     21 C          63.6066   90.0578   12.9563 C.ar    1  UNL1        0.1050
     22 C          64.1588   91.3774   12.5049 C.ar    1  UNL1        0.1197
     23 N          65.0345   91.9121   13.5991 N.ar    1  UNL1       -0.2219
     24 C          65.0236   90.9229   14.7267 C.ar    1  UNL1        0.1851
@<TRIPOS>BOND
     1     7     8   ar
     2     8     9   ar
     3     9    10   ar
     4    10    11   ar
     5    11     6    1
     6     6     5    1
     7     5     4    1
     8     4     2    1
     9     2     1    1
    10     1    13    1
    11    13    14    1
    12    14    15   ar
    13    15    16   ar
    14    16    17   ar
    15    17    18   ar
    16    18    20    1
    17    20    21   ar
    18    21    22   ar
    19    22    23   ar
    20    23    24   ar
    21    18    19   ar
    22    11    12   ar
    23    12     7   ar
    24    19    14   ar
    25    24    20   ar
    26     2     3    1
@<TRIPOS>MOLECULE
*****
 24 26 0 0 0
SMALL
GASTEIGER

@<TRIPOS>ATOM
      1 C          63.6360   83.5142   14.7932 C.3     1  UNL1        0.0749
      2 N          62.6996   83.4292   13.6245 N.3     1  UNL1       -0.2971
      3 H          62.5083   82.4390   13.4719 H       1  UNL1        0.1233
      4 C          63.1020   84.0019   12.2978 C.3     1  UNL1        0.0689
      5 C          62.4334   85.2418   11.7823 C.3     1  UNL1        0.0218
      6 C          62.2739   85.4490   10.3053 C.3     1  UNL1        0.0294
      7 C          61.3317   89.2520    9.6735 C.ar    1  UNL1        0.0204
      8 C          60.1494   89.1036    8.7624 C.ar    1  UNL1        0.0989
      9 N          59.6752   87.7369    8.3657 N.ar    1  UNL1       -0.2426
     10 C          60.3833   86.5187    8.8799 C.ar    1  UNL1        0.0946
     11 C          61.5657   86.6672    9.7910 C.ar    1  UNL1       -0.0030
     12 C          62.0398   88.0338   10.1877 C.ar    1  UNL1       -0.0011
     13 C          64.5944   84.6628   14.9044 C.3     1  UNL1        0.0630
     14 C          64.1150   85.9941   15.4022 C.ar    1  UNL1        0.0650
     15 C          63.3785   86.0865   16.7056 C.ar    1  UNL1        0.0356
     16 C          62.8990   87.4178   17.2035 C.ar    1  UNL1        0.1033
     17 N          63.1561   88.6567   16.3978 N.ar    1  UNL1       -0.2095
     18 C          63.8927   88.5642   15.0943 C.ar    1  UNL1        0.2378
     19 N          64.3721   87.2330   14.5965 N.ar    1  UNL1       -0.2154
     20 N          64.1498   89.8031   14.2887 N.ar    1  UNL1       -0.2558
     21 C          63.5618   90.1191   12.9454 C.ar    1  UNL1        0.1050
     22 C          64.0886   91.4548   12.5114 C.ar    1  UNL1        0.1197
     23 N          65.0022   91.9644   13.5864 N.ar    1  UNL1       -0.2219
     24 C          65.0400   90.9436   14.6849 C.ar    1  UNL1        0.1851
@<TRIPOS>BOND
     1     7     8   ar
     2     8     9   ar
     3     9    10   ar
     4    10    11   ar
     5    11     6    1
     6     6     5    1
     7     5     4    1
     8     4     2    1
     9     2     1    1
    10     1    13    1
    11    13    14    1
    12    14    15   ar
    13    15    16   ar
    14    16    17   ar
    15    17    18   ar
    16    18    20    1
    17    20    21   ar
    18    21    22   ar
    19    22    23   ar
    20    23    24   ar
    21    18    19   ar
    22    11    12   ar
    23    12     7   ar
    24    19    14   ar
    25    24    20   ar
    26     2     3    1
@<TRIPOS>MOLECULE
*****
 24 26 0 0 0
SMALL
GASTEIGER

@<TRIPOS>ATOM
      1 C          61.0686   89.4061   11.4631 C.3     1  UNL1        0.0749
      2 N          60.9454   87.9134   11.5440 N.3     1  UNL1       -0.2971
      3 H          60.8982   87.6751   12.5346 H       1  UNL1        0.1233
      4 C          62.0036   87.0397   10.9384 C.3     1  UNL1        0.0689
      5 C          62.0244   85.5699   11.2375 C.3     1  UNL1        0.0218
      6 C          62.8471   85.0482   12.3781 C.3     1  UNL1        0.0294
      7 C          62.8043   81.0876   12.1277 C.ar    1  UNL1        0.0204
      8 C          62.5624   80.7156   13.5605 C.ar    1  UNL1        0.0989
      9 N          62.4155   81.7878   14.5992 N.ar    1  UNL1       -0.2426
     10 C          62.5104   83.2319   14.2051 C.ar    1  UNL1        0.0946
     11 C          62.7522   83.6039   12.7723 C.ar    1  UNL1       -0.0030
     12 C          62.8991   82.5318   11.7335 C.ar    1  UNL1       -0.0011
     13 C          62.2310   90.0250   10.7446 C.3     1  UNL1        0.0630
     14 C          63.2760   90.7754   11.5158 C.ar    1  UNL1        0.0650
     15 C          63.4316   90.5434   12.9895 C.ar    1  UNL1        0.0356
     16 C          64.4767   91.2938   13.7607 C.ar    1  UNL1        0.1033
     17 N          65.3661   92.2763   13.0581 N.ar    1  UNL1       -0.2095
     18 C          65.2105   92.5083   11.5843 C.ar    1  UNL1        0.2378
     19 N          64.1654   91.7579   10.8132 N.ar    1  UNL1       -0.2154
     20 N          66.0999   93.4908   10.8817 N.ar    1  UNL1       -0.2558
     21 C          65.9442   94.9827   10.8884 C.ar    1  UNL1        0.1050
     22 C          67.0492   95.5679   10.0599 C.ar    1  UNL1        0.1197
     23 N          67.8879   94.4376    9.5411 N.ar    1  UNL1       -0.2219
     24 C          67.3012   93.1539   10.0489 C.ar    1  UNL1        0.1851
@<TRIPOS>BOND
     1     7     8   ar
     2     8     9   ar
     3     9    10   ar
     4    10    11   ar
     5    11     6    1
     6     6     5    1
     7     5     4    1
     8     4     2    1
     9     2     1    1
    10     1    13    1
    11    13    14    1
    12    14    15   ar
    13    15    16   ar
    14    16    17   ar
    15    17    18   ar
    16    18    20    1
    17    20    21   ar
    18    21    22   ar
    19    22    23   ar
    20    23    24   ar
    21    18    19   ar
    22    11    12   ar
    23    12     7   ar
    24    19    14   ar
    25    24    20   ar
    26     2     3    1
@<TRIPOS>MOLECULE
*****
 24 26 0 0 0
SMALL
GASTEIGER

@<TRIPOS>ATOM
      1 C          63.3286   90.3236   12.6911 C.3     1  UNL1        0.0749
      2 N          61.9189   89.8114   12.7018 N.3     1  UNL1       -0.2971
      3 H          61.9505   88.8702   13.0937 H       1  UNL1        0.1233
      4 C          61.1440   89.7212   11.4207 C.3     1  UNL1        0.0689
      5 C          60.1973   88.5796   11.1955 C.3     1  UNL1        0.0218
      6 C          60.3337   87.7223    9.9722 C.3     1  UNL1        0.0294
      7 C          63.0675   85.1656    8.6531 C.ar    1  UNL1        0.0204
      8 C          63.3357   84.3708    9.8966 C.ar    1  UNL1        0.0989
      9 N          62.6033   84.6932   11.1654 N.ar    1  UNL1       -0.2426
     10 C          61.6026   85.8103   11.1906 C.ar    1  UNL1        0.0946
     11 C          61.3344   86.6051    9.9471 C.ar    1  UNL1       -0.0030
     12 C          62.0668   86.2827    8.6783 C.ar    1  UNL1       -0.0011
     13 C          64.2615   89.9758   13.8131 C.3     1  UNL1        0.0630
     14 C          63.8859   88.9077   14.7970 C.ar    1  UNL1        0.0650
     15 C          63.4407   89.2841   16.1790 C.ar    1  UNL1        0.0356
     16 C          63.0651   88.2160   17.1630 C.ar    1  UNL1        0.1033
     17 N          63.1347   86.7715   16.7649 N.ar    1  UNL1       -0.2095
     18 C          63.5801   86.3951   15.3828 C.ar    1  UNL1        0.2378
     19 N          63.9556   87.4632   14.3989 N.ar    1  UNL1       -0.2154
     20 N          63.6498   84.9506   14.9846 N.ar    1  UNL1       -0.2558
     21 C          64.6158   84.3513   14.0060 C.ar    1  UNL1        0.1050
     22 C          64.3287   82.8820   13.9118 C.ar    1  UNL1        0.1197
     23 N          63.1853   82.5732   14.8322 N.ar    1  UNL1       -0.2219
     24 C          62.7656   83.8516   15.4953 C.ar    1  UNL1        0.1851
@<TRIPOS>BOND
     1     7     8   ar
     2     8     9   ar
     3     9    10   ar
     4    10    11   ar
     5    11     6    1
     6     6     5    1
     7     5     4    1
     8     4     2    1
     9     2     1    1
    10     1    13    1
    11    13    14    1
    12    14    15   ar
    13    15    16   ar
    14    16    17   ar
    15    17    18   ar
    16    18    20    1
    17    20    21   ar
    18    21    22   ar
    19    22    23   ar
    20    23    24   ar
    21    18    19   ar
    22    11    12   ar
    23    12     7   ar
    24    19    14   ar
    25    24    20   ar
    26     2     3    1
@<TRIPOS>MOLECULE
*****
 24 26 0 0 0
SMALL
GASTEIGER

@<TRIPOS>ATOM
      1 C          64.0249   89.1765   14.4774 C.3     1  UNL1        0.0749
      2 N          64.0064   87.7460   14.0265 N.3     1  UNL1       -0.2971
      3 H          63.0465   87.5358   13.7531 H       1  UNL1        0.1233
      4 C          64.4374   86.6582   14.9651 C.3     1  UNL1        0.0689
      5 C          64.4973   85.2370   14.4890 C.3     1  UNL1        0.0218
      6 C          63.5850   84.7744   13.3920 C.3     1  UNL1        0.0294
      7 C          62.8503   81.1275   12.0097 C.ar    1  UNL1        0.0204
      8 C          62.2638   80.4759   13.2268 C.ar    1  UNL1        0.0989
      9 N          62.1177   81.2571   14.4989 N.ar    1  UNL1       -0.2426
     10 C          62.5581   82.6899   14.5540 C.ar    1  UNL1        0.0946
     11 C          63.1446   83.3415   13.3369 C.ar    1  UNL1       -0.0030
     12 C          63.2907   82.5603   12.0648 C.ar    1  UNL1       -0.0011
     13 C          63.9601   90.2825   13.4661 C.3     1  UNL1        0.0630
     14 C          64.9406   91.4159   13.5305 C.ar    1  UNL1        0.0650
     15 C          65.6492   91.7224   14.8164 C.ar    1  UNL1        0.0356
     16 C          66.6297   92.8558   14.8808 C.ar    1  UNL1        0.1033
     17 N          66.9015   93.6827   13.6592 N.ar    1  UNL1       -0.2095
     18 C          66.1928   93.3761   12.3732 C.ar    1  UNL1        0.2378
     19 N          65.2123   92.2428   12.3088 N.ar    1  UNL1       -0.2154
     20 N          66.4645   94.2030   11.1515 N.ar    1  UNL1       -0.2558
     21 C          67.1852   93.7441    9.9186 C.ar    1  UNL1        0.1050
     22 C          67.2294   94.8915    8.9534 C.ar    1  UNL1        0.1197
     23 N          66.5360   96.0595    9.5897 N.ar    1  UNL1       -0.2219
     24 C          66.0632   95.6341   10.9482 C.ar    1  UNL1        0.1851
@<TRIPOS>BOND
     1     7     8   ar
     2     8     9   ar
     3     9    10   ar
     4    10    11   ar
     5    11     6    1
     6     6     5    1
     7     5     4    1
     8     4     2    1
     9     2     1    1
    10     1    13    1
    11    13    14    1
    12    14    15   ar
    13    15    16   ar
    14    16    17   ar
    15    17    18   ar
    16    18    20    1
    17    20    21   ar
    18    21    22   ar
    19    22    23   ar
    20    23    24   ar
    21    18    19   ar
    22    11    12   ar
    23    12     7   ar
    24    19    14   ar
    25    24    20   ar
    26     2     3    1
@<TRIPOS>MOLECULE
*****
 24 26 0 0 0
SMALL
GASTEIGER

@<TRIPOS>ATOM
      1 C          62.9350   89.9813   12.0192 C.3     1  UNL1        0.0749
      2 N          62.4900   88.5522   11.9212 N.3     1  UNL1       -0.2971
      3 H          63.3181   88.0007   11.6965 H       1  UNL1        0.1233
      4 C          61.4296   88.1629   10.9344 C.3     1  UNL1        0.0689
      5 C          61.1104   86.7147   10.7087 C.3     1  UNL1        0.0218
      6 C          62.0930   85.8321    9.9979 C.3     1  UNL1        0.0294
      7 C          64.3816   82.6818   10.7650 C.ar    1  UNL1        0.0204
      8 C          64.2552   82.5963   12.2572 C.ar    1  UNL1        0.0989
      9 N          63.4081   83.5893   12.9963 N.ar    1  UNL1       -0.2426
     10 C          62.6874   84.6679   12.2433 C.ar    1  UNL1        0.0946
     11 C          62.8138   84.7534   10.7511 C.ar    1  UNL1       -0.0030
     12 C          63.6609   83.7604   10.0120 C.ar    1  UNL1       -0.0011
     13 C          63.5105   90.5013   13.3032 C.3     1  UNL1        0.0630
     14 C          64.7936   91.2780   13.2898 C.ar    1  UNL1        0.0650
     15 C          65.8077   91.0699   14.3752 C.ar    1  UNL1        0.0356
     16 C          67.0909   91.8467   14.3618 C.ar    1  UNL1        0.1033
     17 N          67.3599   92.8315   13.2629 N.ar    1  UNL1       -0.2095
     18 C          66.3458   93.0396   12.1774 C.ar    1  UNL1        0.2378
     19 N          65.0627   92.2629   12.1908 N.ar    1  UNL1       -0.2154
     20 N          66.6149   94.0245   11.0784 N.ar    1  UNL1       -0.2558
     21 C          67.2336   93.7136    9.7478 C.ar    1  UNL1        0.1050
     22 C          67.3136   94.9901    8.9641 C.ar    1  UNL1        0.1197
     23 N          66.7443   96.0900    9.8104 N.ar    1  UNL1       -0.2219
     24 C          66.3124   95.4932   11.1172 C.ar    1  UNL1        0.1851
@<TRIPOS>BOND
     1     7     8   ar
     2     8     9   ar
     3     9    10   ar
     4    10    11   ar
     5    11     6    1
     6     6     5    1
     7     5     4    1
     8     4     2    1
     9     2     1    1
    10     1    13    1
    11    13    14    1
    12    14    15   ar
    13    15    16   ar
    14    16    17   ar
    15    17    18   ar
    16    18    20    1
    17    20    21   ar
    18    21    22   ar
    19    22    23   ar
    20    23    24   ar
    21    18    19   ar
    22    11    12   ar
    23    12     7   ar
    24    19    14   ar
    25    24    20   ar
    26     2     3    1
@<TRIPOS>MOLECULE
*****
 24 26 0 0 0
SMALL
GASTEIGER

@<TRIPOS>ATOM
      1 C          63.2793   89.8960   12.7622 C.3     1  UNL1        0.0749
      2 N          61.7913   89.7451   12.6491 N.3     1  UNL1       -0.2971
      3 H          61.5466   88.8759   13.1236 H       1  UNL1        0.1233
      4 C          61.1429   89.6978   11.2973 C.3     1  UNL1        0.0689
      5 C          61.8008   88.9500   10.1756 C.3     1  UNL1        0.0218
      6 C          62.0209   87.4706   10.2880 C.3     1  UNL1        0.0294
      7 C          62.6297   84.8271    7.3912 C.ar    1  UNL1        0.0204
      8 C          61.2807   84.8093    6.7356 C.ar    1  UNL1        0.0989
      9 N          60.1784   85.6786    7.2641 N.ar    1  UNL1       -0.2426
     10 C          60.4251   86.5657    8.4482 C.ar    1  UNL1        0.0946
     11 C          61.7741   86.5835    9.1038 C.ar    1  UNL1       -0.0030
     12 C          62.8764   85.7141    8.5754 C.ar    1  UNL1       -0.0011
     13 C          63.8855   90.4249   14.0283 C.3     1  UNL1        0.0630
     14 C          64.9665   91.4629   13.9658 C.ar    1  UNL1        0.0650
     15 C          65.8862   91.6591   15.1344 C.ar    1  UNL1        0.0356
     16 C          66.9673   92.6972   15.0719 C.ar    1  UNL1        0.1033
     17 N          67.1285   93.5389   13.8409 N.ar    1  UNL1       -0.2095
     18 C          66.2087   93.3426   12.6723 C.ar    1  UNL1        0.2378
     19 N          65.1277   92.3046   12.7348 N.ar    1  UNL1       -0.2154
     20 N          66.3699   94.1844   11.4412 N.ar    1  UNL1       -0.2558
     21 C          66.0667   95.6491   11.3287 C.ar    1  UNL1        0.1050
     22 C          66.3721   96.0792    9.9245 C.ar    1  UNL1        0.1197
     23 N          66.8641   94.8803    9.1692 N.ar    1  UNL1       -0.2219
     24 C          66.8628   93.7092   10.1065 C.ar    1  UNL1        0.1851
@<TRIPOS>BOND
     1     7     8   ar
     2     8     9   ar
     3     9    10   ar
     4    10    11   ar
     5    11     6    1
     6     6     5    1
     7     5     4    1
     8     4     2    1
     9     2     1    1
    10     1    13    1
    11    13    14    1
    12    14    15   ar
    13    15    16   ar
    14    16    17   ar
    15    17    18   ar
    16    18    20    1
    17    20    21   ar
    18    21    22   ar
    19    22    23   ar
    20    23    24   ar
    21    18    19   ar
    22    11    12   ar
    23    12     7   ar
    24    19    14   ar
    25    24    20   ar
    26     2     3    1
@<TRIPOS>MOLECULE
*****
 24 26 0 0 0
SMALL
GASTEIGER

@<TRIPOS>ATOM
      1 C          64.4220   88.5587   14.8272 C.3     1  UNL1        0.0749
      2 N          64.0342   87.2097   14.2983 N.3     1  UNL1       -0.2971
      3 H          63.0171   87.1541   14.3507 H       1  UNL1        0.1233
      4 C          64.5699   85.9676   14.9465 C.3     1  UNL1        0.0689
      5 C          63.6534   84.8143   15.2294 C.3     1  UNL1        0.0218
      6 C          64.1218   83.4089   14.9940 C.3     1  UNL1        0.0294
      7 C          62.7855   80.6895   12.4309 C.ar    1  UNL1        0.0204
      8 C          63.1464   81.3306   11.1237 C.ar    1  UNL1        0.0989
      9 N          63.8324   82.6644   11.1066 N.ar    1  UNL1       -0.2426
     10 C          64.1575   83.3572   12.3966 C.ar    1  UNL1        0.0946
     11 C          63.7966   82.7161   13.7038 C.ar    1  UNL1       -0.0030
     12 C          63.1106   81.3823   13.7209 C.ar    1  UNL1       -0.0011
     13 C          63.6858   89.7833   14.3707 C.3     1  UNL1        0.0630
     14 C          63.4070   89.9904   12.9115 C.ar    1  UNL1        0.0650
     15 C          63.9016   91.2271   12.2216 C.ar    1  UNL1        0.0356
     16 C          63.6228   91.4342   10.7623 C.ar    1  UNL1        0.1033
     17 N          62.8495   90.4046    9.9930 N.ar    1  UNL1       -0.2095
     18 C          62.3549   89.1679   10.6830 C.ar    1  UNL1        0.2378
     19 N          62.6337   88.9608   12.1422 N.ar    1  UNL1       -0.2154
     20 N          61.5815   88.1383    9.9136 N.ar    1  UNL1       -0.2558
     21 C          62.1184   86.8364    9.3972 C.ar    1  UNL1        0.1050
     22 C          61.0042   86.1233    8.6901 C.ar    1  UNL1        0.1197
     23 N          59.7787   86.9846    8.7694 N.ar    1  UNL1       -0.2219
     24 C          60.1354   88.2299    9.5256 C.ar    1  UNL1        0.1851
@<TRIPOS>BOND
     1     7     8   ar
     2     8     9   ar
     3     9    10   ar
     4    10    11   ar
     5    11     6    1
     6     6     5    1
     7     5     4    1
     8     4     2    1
     9     2     1    1
    10     1    13    1
    11    13    14    1
    12    14    15   ar
    13    15    16   ar
    14    16    17   ar
    15    17    18   ar
    16    18    20    1
    17    20    21   ar
    18    21    22   ar
    19    22    23   ar
    20    23    24   ar
    21    18    19   ar
    22    11    12   ar
    23    12     7   ar
    24    19    14   ar
    25    24    20   ar
    26     2     3    1
@<TRIPOS>MOLECULE
*****
 24 26 0 0 0
SMALL
GASTEIGER

@<TRIPOS>ATOM
      1 C          63.9602   89.0964   14.9618 C.3     1  UNL1        0.0749
      2 N          64.1917   87.8039   14.2367 N.3     1  UNL1       -0.2971
      3 H          63.3791   87.6518   13.6393 H       1  UNL1        0.1233
      4 C          64.4030   86.5369   15.0113 C.3     1  UNL1        0.0689
      5 C          63.8543   85.2406   14.4929 C.3     1  UNL1        0.0218
      6 C          64.7623   84.2618   13.8093 C.3     1  UNL1        0.0294
      7 C          63.9250   82.2402   10.4984 C.ar    1  UNL1        0.0204
      8 C          63.0470   81.1534   11.0442 C.ar    1  UNL1        0.0989
      9 N          62.7407   81.1028   12.5117 N.ar    1  UNL1       -0.2426
     10 C          63.3125   82.1388   13.4334 C.ar    1  UNL1        0.0946
     11 C          64.1905   83.2256   12.8876 C.ar    1  UNL1       -0.0030
     12 C          64.4968   83.2763   11.4201 C.ar    1  UNL1       -0.0011
     13 C          64.6519   90.3468   14.5055 C.3     1  UNL1        0.0630
     14 C          64.4071   90.8778   13.1242 C.ar    1  UNL1        0.0650
     15 C          63.2725   90.3395   12.3040 C.ar    1  UNL1        0.0356
     16 C          63.0276   90.8706   10.9226 C.ar    1  UNL1        0.1033
     17 N          63.9173   91.9400   10.3616 N.ar    1  UNL1       -0.2095
     18 C          65.0520   92.4783   11.1819 C.ar    1  UNL1        0.2378
     19 N          65.2968   91.9472   12.5632 N.ar    1  UNL1       -0.2154
     20 N          65.9418   93.5477   10.6209 N.ar    1  UNL1       -0.2558
     21 C          67.0727   93.3383    9.6580 C.ar    1  UNL1        0.1050
     22 C          67.6867   94.6754    9.3662 C.ar    1  UNL1        0.1197
     23 N          66.9352   95.7112   10.1488 N.ar    1  UNL1       -0.2219
     24 C          65.8568   95.0143   10.9242 C.ar    1  UNL1        0.1851
@<TRIPOS>BOND
     1     7     8   ar
     2     8     9   ar
     3     9    10   ar
     4    10    11   ar
     5    11     6    1
     6     6     5    1
     7     5     4    1
     8     4     2    1
     9     2     1    1
    10     1    13    1
    11    13    14    1
    12    14    15   ar
    13    15    16   ar
    14    16    17   ar
    15    17    18   ar
    16    18    20    1
    17    20    21   ar
    18    21    22   ar
    19    22    23   ar
    20    23    24   ar
    21    18    19   ar
    22    11    12   ar
    23    12     7   ar
    24    19    14   ar
    25    24    20   ar
    26     2     3    1
