@<TRIPOS>MOLECULE
*****
 23 26 0 0 0
SMALL
GASTEIGER

@<TRIPOS>ATOM
      1 C          64.7609   91.9852   12.2103 C.2     1  UNL1       -0.0420
      2 C          63.8846   91.0984   13.0444 C.2     1  UNL1       -0.0240
      3 C          62.8742   90.4601   12.1379 C.ar    1  UNL1       -0.0078
      4 C          61.7574   89.4942   12.4021 C.ar    1  UNL1       -0.0006
      5 C          60.8924   89.0207   11.2719 C.ar    1  UNL1       -0.0000
      6 C          61.1441   89.5130    9.8775 C.ar    1  UNL1       -0.0003
      7 C          62.2609   90.4789    9.6134 C.ar    1  UNL1       -0.0040
      8 C          63.1259   90.9524   10.7436 C.ar    1  UNL1       -0.0184
      9 C          64.2920   91.8950   10.7883 C.3     1  UNL1        0.0480
     10 C          65.9051   92.8163   12.7103 C.3     1  UNL1        0.0394
     11 C          66.5934   93.7777   11.7873 C.3     1  UNL1        0.0766
     12 F          69.4110   92.0150    7.8910 F       1  UNL1       -0.2343
     13 C          68.5857   92.5312    9.0322 C.3     1  UNL1        0.1927
     14 C          68.1220   91.9713   10.3442 C.3     1  UNL1        0.1093
     15 N          67.4186   93.2614   10.6461 N.3     1  UNL1       -0.2677
     16 C          67.8825   93.8212    9.3341 C.3     1  UNL1        0.1093
     17 C          63.9987   90.8870   14.5250 C.3     1  UNL1        0.0730
     18 C          63.8591   89.5080   15.0987 C.ar    1  UNL1        0.0825
     19 C          63.1004   89.3002   16.3759 C.ar    1  UNL1        0.1139
     20 N          62.9608   87.9214   16.9496 N.ar    1  UNL1       -0.2394
     21 C          63.5800   86.7502   16.2460 C.ar    1  UNL1        0.1195
     22 C          64.3387   86.9579   14.9689 C.ar    1  UNL1        0.1191
     23 N          64.4783   88.3368   14.3952 N.ar    1  UNL1       -0.2446
@<TRIPOS>BOND
     1    12    13    1
     2    13    14    1
     3    14    15    1
     4    15    11    1
     5    11    10    1
     6    10     1    1
     7     1     2    2
     8     2    17    1
     9    17    18    1
    10    18    19   ar
    11    19    20   ar
    12    20    21   ar
    13    21    22   ar
    14    22    23   ar
    15     2     3    1
    16     3     4   ar
    17     4     5   ar
    18     5     6   ar
    19     6     7   ar
    20     7     8   ar
    21     8     9    1
    22    15    16    1
    23    16    13    1
    24     9     1    1
    25    23    18   ar
    26     8     3   ar
@<TRIPOS>MOLECULE
*****
 23 26 0 0 0
SMALL
GASTEIGER

@<TRIPOS>ATOM
      1 C          64.9178   92.3708   12.0090 C.2     1  UNL1       -0.0420
      2 C          64.6348   91.1818   12.8787 C.2     1  UNL1       -0.0240
      3 C          63.7346   90.2544   12.1174 C.ar    1  UNL1       -0.0078
      4 C          63.1285   88.9288   12.4714 C.ar    1  UNL1       -0.0006
      5 C          62.2490   88.2189   11.4852 C.ar    1  UNL1       -0.0000
      6 C          61.9756   88.8347   10.1450 C.ar    1  UNL1       -0.0003
      7 C          62.5817   90.1604    9.7910 C.ar    1  UNL1       -0.0040
      8 C          63.4612   90.8702   10.7772 C.ar    1  UNL1       -0.0184
      9 C          64.1924   92.1782   10.7103 C.3     1  UNL1        0.0480
     10 C          65.7755   93.5460   12.3740 C.3     1  UNL1        0.0394
     11 C          66.4925   94.3127   11.3026 C.3     1  UNL1        0.0766
     12 F          69.5092   91.8517    7.9754 F       1  UNL1       -0.2343
     13 C          68.6256   92.5725    8.9499 C.3     1  UNL1        0.1927
     14 C          67.9748   92.2185   10.2541 C.3     1  UNL1        0.1093
     15 N          67.3761   93.5919   10.3281 N.3     1  UNL1       -0.2677
     16 C          68.0270   93.9458    9.0239 C.3     1  UNL1        0.1093
     17 C          65.1599   90.9593   14.2660 C.3     1  UNL1        0.0730
     18 C          66.3616   91.7193   14.7441 C.ar    1  UNL1        0.0825
     19 C          66.2479   92.6359   15.9259 C.ar    1  UNL1        0.1139
     20 N          67.4495   93.3959   16.4040 N.ar    1  UNL1       -0.2394
     21 C          68.7648   93.2393   15.7001 C.ar    1  UNL1        0.1195
     22 C          68.8784   92.3226   14.5182 C.ar    1  UNL1        0.1191
     23 N          67.6769   91.5626   14.0402 N.ar    1  UNL1       -0.2446
@<TRIPOS>BOND
     1    12    13    1
     2    13    14    1
     3    14    15    1
     4    15    11    1
     5    11    10    1
     6    10     1    1
     7     1     2    2
     8     2    17    1
     9    17    18    1
    10    18    19   ar
    11    19    20   ar
    12    20    21   ar
    13    21    22   ar
    14    22    23   ar
    15     2     3    1
    16     3     4   ar
    17     4     5   ar
    18     5     6   ar
    19     6     7   ar
    20     7     8   ar
    21     8     9    1
    22    15    16    1
    23    16    13    1
    24     9     1    1
    25    23    18   ar
    26     8     3   ar
@<TRIPOS>MOLECULE
*****
 23 26 0 0 0
SMALL
GASTEIGER

@<TRIPOS>ATOM
      1 C          63.9282   89.6595   13.5814 C.2     1  UNL1       -0.0420
      2 C          63.8688   88.1613   13.6224 C.2     1  UNL1       -0.0240
      3 C          63.1508   87.6920   12.3918 C.ar    1  UNL1       -0.0078
      4 C          62.7973   86.3206   11.8975 C.ar    1  UNL1       -0.0006
      5 C          62.0596   86.1575   10.6018 C.ar    1  UNL1       -0.0000
      6 C          61.6753   87.3658    9.8003 C.ar    1  UNL1       -0.0003
      7 C          62.0288   88.7372   10.2945 C.ar    1  UNL1       -0.0040
      8 C          62.7665   88.9003   11.5903 C.ar    1  UNL1       -0.0184
      9 C          63.2470   90.1162   12.3255 C.3     1  UNL1        0.0480
     10 C          64.5583   90.5455   14.6149 C.3     1  UNL1        0.0394
     11 C          65.9181   91.1304   14.3730 C.3     1  UNL1        0.0766
     12 F          66.4075   95.4188   11.6166 F       1  UNL1       -0.2343
     13 C          66.2642   94.1628   12.4239 C.3     1  UNL1        0.1927
     14 C          66.5777   93.7686   13.8368 C.3     1  UNL1        0.1093
     15 N          66.0615   92.3865   13.5656 N.3     1  UNL1       -0.2677
     16 C          65.7480   92.7808   12.1528 C.3     1  UNL1        0.1093
     17 C          64.4290   87.2859   14.7040 C.3     1  UNL1        0.0730
     18 C          64.0287   85.8423   14.7832 C.ar    1  UNL1        0.0825
     19 C          64.9005   84.7875   14.1689 C.ar    1  UNL1        0.1139
     20 N          64.5003   83.3441   14.2480 N.ar    1  UNL1       -0.2394
     21 C          63.2283   82.9555   14.9414 C.ar    1  UNL1        0.1195
     22 C          62.3565   84.0103   15.5557 C.ar    1  UNL1        0.1191
     23 N          62.7567   85.4537   15.4766 N.ar    1  UNL1       -0.2446
@<TRIPOS>BOND
     1    12    13    1
     2    13    14    1
     3    14    15    1
     4    15    11    1
     5    11    10    1
     6    10     1    1
     7     1     2    2
     8     2    17    1
     9    17    18    1
    10    18    19   ar
    11    19    20   ar
    12    20    21   ar
    13    21    22   ar
    14    22    23   ar
    15     2     3    1
    16     3     4   ar
    17     4     5   ar
    18     5     6   ar
    19     6     7   ar
    20     7     8   ar
    21     8     9    1
    22    15    16    1
    23    16    13    1
    24     9     1    1
    25    23    18   ar
    26     8     3   ar
@<TRIPOS>MOLECULE
*****
 23 26 0 0 0
SMALL
GASTEIGER

@<TRIPOS>ATOM
      1 C          60.4470   87.5714   10.4607 C.2     1  UNL1       -0.0420
      2 C          61.7949   86.9133   10.4635 C.2     1  UNL1       -0.0240
      3 C          61.9326   86.1334    9.1895 C.ar    1  UNL1       -0.0078
      4 C          63.0447   85.2856    8.6469 C.ar    1  UNL1       -0.0006
      5 C          62.8939   84.6140    7.3142 C.ar    1  UNL1       -0.0000
      6 C          61.6311   84.7901    6.5242 C.ar    1  UNL1       -0.0003
      7 C          60.5190   85.6379    7.0668 C.ar    1  UNL1       -0.0040
      8 C          60.6698   86.3095    8.3995 C.ar    1  UNL1       -0.0184
      9 C          59.7517   87.1983    9.1851 C.3     1  UNL1        0.0480
     10 C          59.8920   88.4487   11.5435 C.3     1  UNL1        0.0394
     11 C          60.1660   89.9233   11.5282 C.3     1  UNL1        0.0766
     12 F          64.9317   91.6345   10.7612 F       1  UNL1       -0.2343
     13 C          63.5359   91.1333   10.9859 C.3     1  UNL1        0.1927
     14 C          62.3525   90.8602   10.1055 C.3     1  UNL1        0.1093
     15 N          61.5619   90.4245   11.3036 N.3     1  UNL1       -0.2677
     16 C          62.7453   90.6976   12.1838 C.3     1  UNL1        0.1093
     17 C          62.8245   87.0168   11.5494 C.3     1  UNL1        0.0730
     18 C          63.0068   85.8878   12.5202 C.ar    1  UNL1        0.0825
     19 C          62.5432   84.5073   12.1607 C.ar    1  UNL1        0.1139
     20 N          62.7255   83.3784   13.1313 N.ar    1  UNL1       -0.2394
     21 C          63.3715   83.6300   14.4615 C.ar    1  UNL1        0.1195
     22 C          63.8351   85.0105   14.8210 C.ar    1  UNL1        0.1191
     23 N          63.6528   86.1394   13.8504 N.ar    1  UNL1       -0.2446
@<TRIPOS>BOND
     1    12    13    1
     2    13    14    1
     3    14    15    1
     4    15    11    1
     5    11    10    1
     6    10     1    1
     7     1     2    2
     8     2    17    1
     9    17    18    1
    10    18    19   ar
    11    19    20   ar
    12    20    21   ar
    13    21    22   ar
    14    22    23   ar
    15     2     3    1
    16     3     4   ar
    17     4     5   ar
    18     5     6   ar
    19     6     7   ar
    20     7     8   ar
    21     8     9    1
    22    15    16    1
    23    16    13    1
    24     9     1    1
    25    23    18   ar
    26     8     3   ar
@<TRIPOS>MOLECULE
*****
 23 26 0 0 0
SMALL
GASTEIGER

@<TRIPOS>ATOM
      1 C          63.2558   90.0927   12.2343 C.2     1  UNL1       -0.0420
      2 C          63.5800   88.7507   12.8206 C.2     1  UNL1       -0.0240
      3 C          62.8930   87.7050   11.9931 C.ar    1  UNL1       -0.0078
      4 C          62.8526   86.2092   12.0974 C.ar    1  UNL1       -0.0006
      5 C          62.0634   85.4092   11.1039 C.ar    1  UNL1       -0.0000
      6 C          61.3146   86.1050   10.0061 C.ar    1  UNL1       -0.0003
      7 C          61.3551   87.6008    9.9018 C.ar    1  UNL1       -0.0040
      8 C          62.1442   88.4008   10.8953 C.ar    1  UNL1       -0.0184
      9 C          62.3684   89.8765   11.0444 C.3     1  UNL1        0.0480
     10 C          63.7348   91.4182   12.7477 C.3     1  UNL1        0.0394
     11 C          65.1311   91.8778   12.4496 C.3     1  UNL1        0.0766
     12 F          68.0368   93.8314   16.1870 F       1  UNL1       -0.2343
     13 C          67.1857   93.2592   15.0923 C.3     1  UNL1        0.1927
     14 C          66.5636   93.8009   13.8395 C.3     1  UNL1        0.1093
     15 N          65.9822   92.4500   13.5442 N.3     1  UNL1       -0.2677
     16 C          66.6043   91.9085   14.7971 C.3     1  UNL1        0.1093
     17 C          64.4401   88.4985   14.0234 C.3     1  UNL1        0.0730
     18 C          63.8688   87.7978   15.2204 C.ar    1  UNL1        0.0825
     19 C          63.3154   88.5960   16.3635 C.ar    1  UNL1        0.1139
     20 N          62.7442   87.8954   17.5604 N.ar    1  UNL1       -0.2394
     21 C          62.7263   86.3965   17.6143 C.ar    1  UNL1        0.1195
     22 C          63.2797   85.5982   16.4713 C.ar    1  UNL1        0.1191
     23 N          63.8510   86.2988   15.2743 N.ar    1  UNL1       -0.2446
@<TRIPOS>BOND
     1    12    13    1
     2    13    14    1
     3    14    15    1
     4    15    11    1
     5    11    10    1
     6    10     1    1
     7     1     2    2
     8     2    17    1
     9    17    18    1
    10    18    19   ar
    11    19    20   ar
    12    20    21   ar
    13    21    22   ar
    14    22    23   ar
    15     2     3    1
    16     3     4   ar
    17     4     5   ar
    18     5     6   ar
    19     6     7   ar
    20     7     8   ar
    21     8     9    1
    22    15    16    1
    23    16    13    1
    24     9     1    1
    25    23    18   ar
    26     8     3   ar
@<TRIPOS>MOLECULE
*****
 23 26 0 0 0
SMALL
GASTEIGER

@<TRIPOS>ATOM
      1 C          63.9216   89.0874   13.4827 C.2     1  UNL1       -0.0420
      2 C          63.7594   87.5979   13.4120 C.2     1  UNL1       -0.0240
      3 C          62.9600   87.2764   12.1841 C.ar    1  UNL1       -0.0078
      4 C          62.4914   85.9750   11.6038 C.ar    1  UNL1       -0.0006
      5 C          61.6909   85.9645   10.3353 C.ar    1  UNL1       -0.0000
      6 C          61.3591   87.2553    9.6471 C.ar    1  UNL1       -0.0003
      7 C          61.8277   88.5567   10.2274 C.ar    1  UNL1       -0.0040
      8 C          62.6282   88.5672   11.4959 C.ar    1  UNL1       -0.0184
      9 C          63.2225   89.6865   12.2985 C.3     1  UNL1        0.0480
     10 C          64.6543   89.8448   14.5501 C.3     1  UNL1        0.0394
     11 C          64.9717   91.2978   14.3552 C.3     1  UNL1        0.0766
     12 F          69.3000   93.2529   16.2712 F       1  UNL1       -0.2343
     13 C          68.0323   92.6803   15.7100 C.3     1  UNL1        0.1927
     14 C          66.5877   92.7052   16.1131 C.3     1  UNL1        0.1093
     15 N          66.2395   91.8704   14.9164 N.3     1  UNL1       -0.2677
     16 C          67.6841   91.8456   14.5135 C.3     1  UNL1        0.1093
     17 C          64.3014   86.6042   14.3963 C.3     1  UNL1        0.0730
     18 C          63.8383   85.1780   14.3545 C.ar    1  UNL1        0.0825
     19 C          64.6630   84.1421   13.6496 C.ar    1  UNL1        0.1139
     20 N          64.2001   82.7160   13.6078 N.ar    1  UNL1       -0.2394
     21 C          62.9124   82.3257   14.2709 C.ar    1  UNL1        0.1195
     22 C          62.0878   83.3616   14.9758 C.ar    1  UNL1        0.1191
     23 N          62.5507   84.7878   15.0176 N.ar    1  UNL1       -0.2446
@<TRIPOS>BOND
     1    12    13    1
     2    13    14    1
     3    14    15    1
     4    15    11    1
     5    11    10    1
     6    10     1    1
     7     1     2    2
     8     2    17    1
     9    17    18    1
    10    18    19   ar
    11    19    20   ar
    12    20    21   ar
    13    21    22   ar
    14    22    23   ar
    15     2     3    1
    16     3     4   ar
    17     4     5   ar
    18     5     6   ar
    19     6     7   ar
    20     7     8   ar
    21     8     9    1
    22    15    16    1
    23    16    13    1
    24     9     1    1
    25    23    18   ar
    26     8     3   ar
@<TRIPOS>MOLECULE
*****
 23 26 0 0 0
SMALL
GASTEIGER

@<TRIPOS>ATOM
      1 C          64.1214   85.8324   14.4781 C.2     1  UNL1       -0.0420
      2 C          63.4566   86.2569   13.2022 C.2     1  UNL1       -0.0240
      3 C          63.5727   87.7484   13.0929 C.ar    1  UNL1       -0.0078
      4 C          63.1030   88.7179   12.0492 C.ar    1  UNL1       -0.0006
      5 C          63.3698   90.1847   12.2139 C.ar    1  UNL1       -0.0000
      6 C          64.1064   90.6821   13.4222 C.ar    1  UNL1       -0.0003
      7 C          64.5762   89.7126   14.4659 C.ar    1  UNL1       -0.0040
      8 C          64.3094   88.2457   14.3012 C.ar    1  UNL1       -0.0184
      9 C          64.6484   87.0616   15.1573 C.3     1  UNL1        0.0480
     10 C          64.2385   84.4258   14.9856 C.3     1  UNL1        0.0394
     11 C          63.0049   83.5981   15.1932 C.3     1  UNL1        0.0766
     12 F          62.3407   79.2779   12.5245 F       1  UNL1       -0.2343
     13 C          62.5352   80.5433   13.3062 C.3     1  UNL1        0.1927
     14 C          63.6466   81.5402   13.4510 C.3     1  UNL1        0.1093
     15 N          62.8104   82.3327   14.4116 N.3     1  UNL1       -0.2677
     16 C          61.6991   81.3357   14.2667 C.3     1  UNL1        0.1093
     17 C          62.7922   85.3492   12.2099 C.3     1  UNL1        0.0730
     18 C          62.0504   85.9293   11.0422 C.ar    1  UNL1        0.0825
     19 C          62.4960   85.6224    9.6432 C.ar    1  UNL1        0.1139
     20 N          61.7543   86.2025    8.4755 N.ar    1  UNL1       -0.2394
     21 C          60.5670   87.0895    8.7069 C.ar    1  UNL1        0.1195
     22 C          60.1214   87.3964   10.1060 C.ar    1  UNL1        0.1191
     23 N          60.8631   86.8163   11.2736 N.ar    1  UNL1       -0.2446
@<TRIPOS>BOND
     1    12    13    1
     2    13    14    1
     3    14    15    1
     4    15    11    1
     5    11    10    1
     6    10     1    1
     7     1     2    2
     8     2    17    1
     9    17    18    1
    10    18    19   ar
    11    19    20   ar
    12    20    21   ar
    13    21    22   ar
    14    22    23   ar
    15     2     3    1
    16     3     4   ar
    17     4     5   ar
    18     5     6   ar
    19     6     7   ar
    20     7     8   ar
    21     8     9    1
    22    15    16    1
    23    16    13    1
    24     9     1    1
    25    23    18   ar
    26     8     3   ar
@<TRIPOS>MOLECULE
*****
 23 26 0 0 0
SMALL
GASTEIGER

@<TRIPOS>ATOM
      1 C          62.4484   83.7980   14.4327 C.2     1  UNL1       -0.0420
      2 C          62.8490   84.0656   13.0122 C.2     1  UNL1       -0.0240
      3 C          62.8972   82.7524   12.2889 C.ar    1  UNL1       -0.0078
      4 C          63.2308   82.3998   10.8697 C.ar    1  UNL1       -0.0006
      5 C          63.1936   80.9681   10.4239 C.ar    1  UNL1       -0.0000
      6 C          62.8228   79.8889   11.3975 C.ar    1  UNL1       -0.0003
      7 C          62.4892   80.2414   12.8168 C.ar    1  UNL1       -0.0040
      8 C          62.5264   81.6731   13.2625 C.ar    1  UNL1       -0.0184
      9 C          62.2490   82.3194   14.5874 C.3     1  UNL1        0.0480
     10 C          62.2773   84.8282   15.5095 C.3     1  UNL1        0.0394
     11 C          63.4722   85.5616   16.0426 C.3     1  UNL1        0.0766
     12 F          63.4670   90.6799   16.2176 F       1  UNL1       -0.2343
     13 C          63.4685   89.1808   16.1663 C.3     1  UNL1        0.1927
     14 C          63.9699   88.1533   15.1953 C.3     1  UNL1        0.1093
     15 N          63.4707   87.0607   16.0938 N.3     1  UNL1       -0.2677
     16 C          62.9694   88.0883   17.0648 C.3     1  UNL1        0.1093
     17 C          63.1488   85.4103   12.4190 C.3     1  UNL1        0.0730
     18 C          62.2780   85.9599   11.3282 C.ar    1  UNL1        0.0825
     19 C          62.5272   85.5700    9.9014 C.ar    1  UNL1        0.1139
     20 N          61.6565   86.1195    8.8106 N.ar    1  UNL1       -0.2394
     21 C          60.5365   87.0590    9.1467 C.ar    1  UNL1        0.1195
     22 C          60.2873   87.4489   10.5735 C.ar    1  UNL1        0.1191
     23 N          61.1580   86.8994   11.6643 N.ar    1  UNL1       -0.2446
@<TRIPOS>BOND
     1    12    13    1
     2    13    14    1
     3    14    15    1
     4    15    11    1
     5    11    10    1
     6    10     1    1
     7     1     2    2
     8     2    17    1
     9    17    18    1
    10    18    19   ar
    11    19    20   ar
    12    20    21   ar
    13    21    22   ar
    14    22    23   ar
    15     2     3    1
    16     3     4   ar
    17     4     5   ar
    18     5     6   ar
    19     6     7   ar
    20     7     8   ar
    21     8     9    1
    22    15    16    1
    23    16    13    1
    24     9     1    1
    25    23    18   ar
    26     8     3   ar
@<TRIPOS>MOLECULE
*****
 23 26 0 0 0
SMALL
GASTEIGER

@<TRIPOS>ATOM
      1 C          62.9945   88.1815   12.2627 C.2     1  UNL1       -0.0420
      2 C          62.3004   89.2685   11.4967 C.2     1  UNL1       -0.0240
      3 C          61.5313   88.6292   10.3788 C.ar    1  UNL1       -0.0078
      4 C          60.6600   89.2051    9.3022 C.ar    1  UNL1       -0.0006
      5 C          60.0074   88.2990    8.3007 C.ar    1  UNL1       -0.0000
      6 C          60.2261   86.8169    8.3758 C.ar    1  UNL1       -0.0003
      7 C          61.0974   86.2410    9.4524 C.ar    1  UNL1       -0.0040
      8 C          61.7500   87.1471   10.4539 C.ar    1  UNL1       -0.0184
      9 C          62.6543   86.8705   11.6182 C.3     1  UNL1        0.0480
     10 C          63.8744   88.3722   13.4626 C.3     1  UNL1        0.0394
     11 C          64.2434   87.1956   14.3165 C.3     1  UNL1        0.0766
     12 F          62.3719   86.7915   19.0665 F       1  UNL1       -0.2343
     13 C          62.9201   86.9098   17.6752 C.3     1  UNL1        0.1927
     14 C          63.1867   88.0465   16.7335 C.3     1  UNL1        0.1093
     15 N          63.6953   87.0772   15.7077 N.3     1  UNL1       -0.2677
     16 C          63.4286   85.9407   16.6496 C.3     1  UNL1        0.1093
     17 C          62.3643   90.7369   11.7960 C.3     1  UNL1        0.0730
     18 C          63.6900   91.4380   11.8325 C.ar    1  UNL1        0.0825
     19 C          64.3597   91.8428   10.5528 C.ar    1  UNL1        0.1139
     20 N          65.6853   92.5438   10.5892 N.ar    1  UNL1       -0.2394
     21 C          66.3411   92.8400   11.9053 C.ar    1  UNL1        0.1195
     22 C          65.6714   92.4352   13.1850 C.ar    1  UNL1        0.1191
     23 N          64.3458   91.7342   13.1486 N.ar    1  UNL1       -0.2446
@<TRIPOS>BOND
     1    12    13    1
     2    13    14    1
     3    14    15    1
     4    15    11    1
     5    11    10    1
     6    10     1    1
     7     1     2    2
     8     2    17    1
     9    17    18    1
    10    18    19   ar
    11    19    20   ar
    12    20    21   ar
    13    21    22   ar
    14    22    23   ar
    15     2     3    1
    16     3     4   ar
    17     4     5   ar
    18     5     6   ar
    19     6     7   ar
    20     7     8   ar
    21     8     9    1
    22    15    16    1
    23    16    13    1
    24     9     1    1
    25    23    18   ar
    26     8     3   ar
