@<TRIPOS>MOLECULE
*****
 38 43 0 0 0
SMALL
GASTEIGER

@<TRIPOS>ATOM
      1 N          62.7957   83.7285   11.5683 N.ar    1  UNL1       -0.3125
      2 C          62.5296   82.2621   11.3977 C.ar    1  UNL1        0.1784
      3 N          62.5467   81.6269   12.7564 N.ar    1  UNL1       -0.2223
      4 C          62.8234   82.7005   13.7667 C.ar    1  UNL1        0.1179
      5 C          62.9552   82.6632   15.2604 C.ar    1  UNL1        0.1194
      6 N          63.2408   83.9249   16.0199 N.ar    1  UNL1       -0.2421
      7 C          63.3946   85.2238   15.2856 C.ar    1  UNL1        0.0850
      8 C          63.6802   86.4854   16.0450 C.ar    1  UNL1        0.0488
      9 C          63.8340   87.7843   15.3107 C.ar    1  UNL1        0.1416
     10 F          64.1196   89.0459   16.0700 F       1  UNL1       -0.2041
     11 C          63.7023   87.8216   13.8169 C.ar    1  UNL1        0.0284
     12 C          63.4167   86.5599   13.0575 C.ar    1  UNL1        0.0052
     13 C          63.2629   85.2610   13.7918 C.ar    1  UNL1        0.0352
     14 C          62.9773   83.9994   13.0324 C.ar    1  UNL1        0.0818
     15 C          64.0737   83.9174   10.1365 C.3     1  UNL1        0.0228
     16 C          62.8675   84.7454   10.4679 C.3     1  UNL1        0.0725
     17 C          61.6365   85.2202   11.1814 C.3     1  UNL1        0.0382
     18 C          60.8962   86.4243   10.6795 C.3     1  UNL1        0.0749
     19 N          61.3869   87.1537    9.4641 N.3     1  UNL1       -0.2599
     20 C          62.6180   86.6789    8.7506 C.3     1  UNL1        0.0749
     21 C          63.3582   85.4748    9.2525 C.3     1  UNL1        0.0382
     22 C          60.6466   88.3578    8.9622 C.3     1  UNL1        0.1795
     23 C          60.1481   89.3894    9.9306 C.1     1  UNL1        0.0912
     24 N          59.6498   90.4209   10.8989 N.1     1  UNL1       -0.1944
     25 C          63.8562   89.1205   13.0826 C.ar    1  UNL1        0.0129
     26 C          63.0784   89.3671   11.8239 C.ar    1  UNL1        0.0040
     27 C          63.2323   90.6660   11.0896 C.ar    1  UNL1        0.0377
     28 C          64.1639   91.7182   11.6140 C.ar    1  UNL1        0.1495
     29 C          64.9416   91.4716   12.8727 C.ar    1  UNL1        0.0490
     30 C          64.7877   90.1727   13.6070 C.ar    1  UNL1        0.0608
     31 CL         65.5654   89.9260   14.8657 Cl      1  UNL1       -0.0821
     32 O          64.3177   93.0171   10.8797 O.3     1  UNL1       -0.4223
     33 C          65.6553   93.4130   10.3282 C.ar    1  UNL1        0.3246
     34 N          65.9546   94.8563   10.0501 N.ar    1  UNL1       -0.1924
     35 C          67.2922   95.2522    9.4986 C.ar    1  UNL1        0.1053
     36 C          68.3306   94.2047    9.2252 C.ar    1  UNL1        0.0416
     37 C          68.0312   92.7614    9.5033 C.ar    1  UNL1        0.1053
     38 N          66.6937   92.3656   10.0548 N.ar    1  UNL1       -0.1924
@<TRIPOS>BOND
     1    15    16    1
     2    16     1    1
     3     1     2   ar
     4     2     3   ar
     5     3     4   ar
     6     4     5   ar
     7     5     6   ar
     8     6     7   ar
     9     7     8   ar
    10     8     9   ar
    11     9    10    1
    12     9    11   ar
    13    11    25    1
    14    25    26   ar
    15    26    27   ar
    16    27    28   ar
    17    28    32    1
    18    32    33    1
    19    33    34   ar
    20    34    35   ar
    21    35    36   ar
    22    36    37   ar
    23    37    38   ar
    24    28    29   ar
    25    29    30   ar
    26    30    31    1
    27    11    12   ar
    28    12    13   ar
    29    13    14   ar
    30    16    17    1
    31    17    18    1
    32    18    19    1
    33    19    22    1
    34    22    23    1
    35    23    24    3
    36    19    20    1
    37    20    21    1
    38    21    16    1
    39    14     1   ar
    40    14     4   ar
    41    13     7   ar
    42    30    25   ar
    43    38    33   ar
@<TRIPOS>MOLECULE
*****
 38 43 0 0 0
SMALL
GASTEIGER

@<TRIPOS>ATOM
      1 N          62.7397   83.7304   11.2885 N.ar    1  UNL1       -0.3125
      2 C          62.4328   82.3105   10.9146 C.ar    1  UNL1        0.1784
      3 N          62.4533   81.4865   12.1679 N.ar    1  UNL1       -0.2223
      4 C          62.7728   82.3971   13.3162 C.ar    1  UNL1        0.1179
      5 C          62.9254   82.1426   14.7866 C.ar    1  UNL1        0.1194
      6 N          63.2550   83.2750   15.7135 N.ar    1  UNL1       -0.2421
      7 C          63.4320   84.6619   15.1700 C.ar    1  UNL1        0.0850
      8 C          63.7616   85.7942   16.0968 C.ar    1  UNL1        0.0488
      9 C          63.9386   87.1811   15.5533 C.ar    1  UNL1        0.1416
     10 F          64.2682   88.3134   16.4801 F       1  UNL1       -0.2041
     11 C          63.7860   87.4355   14.0830 C.ar    1  UNL1        0.0284
     12 C          63.4564   86.3031   13.1561 C.ar    1  UNL1        0.0052
     13 C          63.2794   84.9163   13.6996 C.ar    1  UNL1        0.0352
     14 C          62.9498   83.7839   12.7727 C.ar    1  UNL1        0.0818
     15 C          64.0904   84.1763    9.9864 C.3     1  UNL1        0.0228
     16 C          62.8220   84.8927   10.3439 C.3     1  UNL1        0.0725
     17 C          61.5249   85.2054   11.0294 C.3     1  UNL1        0.0382
     18 C          60.7507   86.4317   10.6462 C.3     1  UNL1        0.0749
     19 N          61.2734   87.3453    9.5775 N.3     1  UNL1       -0.2599
     20 C          62.5705   87.0325    8.8920 C.3     1  UNL1        0.0749
     21 C          63.3447   85.8063    9.2752 C.3     1  UNL1        0.0382
     22 C          60.4992   88.5714    9.1943 C.3     1  UNL1        0.1795
     23 C          59.9171   88.6910    7.8170 C.1     1  UNL1        0.0912
     24 N          59.3350   88.8106    6.4397 N.1     1  UNL1       -0.1944
     25 C          63.9629   88.8223   13.5395 C.ar    1  UNL1        0.0129
     26 C          65.0370   89.7126   14.0908 C.ar    1  UNL1        0.0040
     27 C          65.2140   91.0994   13.5473 C.ar    1  UNL1        0.0377
     28 C          64.3169   91.5960   12.4524 C.ar    1  UNL1        0.1495
     29 C          63.2429   90.7058   11.9012 C.ar    1  UNL1        0.0490
     30 C          63.0659   89.3190   12.4447 C.ar    1  UNL1        0.0608
     31 CL         61.9919   88.4288   11.8934 Cl      1  UNL1       -0.0821
     32 O          64.4939   92.9828   11.9089 O.3     1  UNL1       -0.4223
     33 C          65.6687   93.3004   11.0320 C.ar    1  UNL1        0.3246
     34 N          65.8658   94.6959   10.5185 N.ar    1  UNL1       -0.1924
     35 C          67.0406   95.0135    9.6415 C.ar    1  UNL1        0.1053
     36 C          68.0183   93.9355    9.2781 C.ar    1  UNL1        0.0416
     37 C          67.8212   92.5400    9.7917 C.ar    1  UNL1        0.1053
     38 N          66.6464   92.2225   10.6686 N.ar    1  UNL1       -0.1924
@<TRIPOS>BOND
     1    15    16    1
     2    16     1    1
     3     1     2   ar
     4     2     3   ar
     5     3     4   ar
     6     4     5   ar
     7     5     6   ar
     8     6     7   ar
     9     7     8   ar
    10     8     9   ar
    11     9    10    1
    12     9    11   ar
    13    11    25    1
    14    25    26   ar
    15    26    27   ar
    16    27    28   ar
    17    28    32    1
    18    32    33    1
    19    33    34   ar
    20    34    35   ar
    21    35    36   ar
    22    36    37   ar
    23    37    38   ar
    24    28    29   ar
    25    29    30   ar
    26    30    31    1
    27    11    12   ar
    28    12    13   ar
    29    13    14   ar
    30    16    17    1
    31    17    18    1
    32    18    19    1
    33    19    22    1
    34    22    23    1
    35    23    24    3
    36    19    20    1
    37    20    21    1
    38    21    16    1
    39    14     1   ar
    40    14     4   ar
    41    13     7   ar
    42    30    25   ar
    43    38    33   ar
@<TRIPOS>MOLECULE
*****
 38 43 0 0 0
SMALL
GASTEIGER

@<TRIPOS>ATOM
      1 N          59.4473   93.2943    1.5042 N.ar    1  UNL1       -0.3125
      2 C          58.3243   92.9245    2.4273 C.ar    1  UNL1        0.1784
      3 N          58.9101   92.1999    3.6027 N.ar    1  UNL1       -0.2223
      4 C          60.3951   92.1218    3.4061 C.ar    1  UNL1        0.1179
      5 C          61.4879   91.5222    4.2406 C.ar    1  UNL1        0.1194
      6 N          62.9127   91.5990    3.7780 N.ar    1  UNL1       -0.2421
      7 C          63.2448   92.2754    2.4810 C.ar    1  UNL1        0.0850
      8 C          64.6695   92.3522    2.0184 C.ar    1  UNL1        0.0488
      9 C          65.0016   93.0286    0.7213 C.ar    1  UNL1        0.1416
     10 F          66.4264   93.1054    0.2587 F       1  UNL1       -0.2041
     11 C          63.9088   93.6282   -0.1131 C.ar    1  UNL1        0.0284
     12 C          62.4839   93.5514    0.3495 C.ar    1  UNL1        0.0052
     13 C          62.1519   92.8750    1.6465 C.ar    1  UNL1        0.0352
     14 C          60.7271   92.7982    2.1091 C.ar    1  UNL1        0.0818
     15 C          59.6866   95.1668    1.1102 C.3     1  UNL1        0.0228
     16 C          59.3139   94.0308    0.2043 C.3     1  UNL1        0.0725
     17 C          58.9876   92.6391   -0.2502 C.3     1  UNL1        0.0382
     18 C          58.6572   92.3784   -1.6900 C.3     1  UNL1        0.0749
     19 N          58.6533   93.5095   -2.6753 N.3     1  UNL1       -0.2599
     20 C          58.9797   94.9012   -2.2208 C.3     1  UNL1        0.0749
     21 C          59.3100   95.1618   -0.7810 C.3     1  UNL1        0.0382
     22 C          58.3230   93.2488   -4.1150 C.3     1  UNL1        0.1795
     23 C          57.2413   92.2725   -4.4715 C.1     1  UNL1        0.0912
     24 N          56.1597   91.2964   -4.8281 N.1     1  UNL1       -0.1944
     25 C          64.2408   94.3045   -1.4101 C.ar    1  UNL1        0.0129
     26 C          63.9254   93.6278   -2.7111 C.ar    1  UNL1        0.0040
     27 C          64.2575   94.3042   -4.0082 C.ar    1  UNL1        0.0377
     28 C          64.9049   95.6573   -4.0041 C.ar    1  UNL1        0.1495
     29 C          65.2202   96.3340   -2.7032 C.ar    1  UNL1        0.0490
     30 C          64.8882   95.6576   -1.4061 C.ar    1  UNL1        0.0608
     31 CL         65.2036   96.3343   -0.1051 Cl      1  UNL1       -0.0821
     32 O          65.2369   96.3337   -5.3012 O.3     1  UNL1       -0.4223
     33 C          66.4756   95.9465   -6.0534 C.ar    1  UNL1        0.3246
     34 N          67.6691   96.8549   -6.0513 N.ar    1  UNL1       -0.1924
     35 C          68.9078   96.4677   -6.8035 C.ar    1  UNL1        0.1053
     36 C          68.9528   95.1719   -7.5579 C.ar    1  UNL1        0.0416
     37 C          67.7592   94.2634   -7.5599 C.ar    1  UNL1        0.1053
     38 N          66.5206   94.6507   -6.8077 N.ar    1  UNL1       -0.1924
@<TRIPOS>BOND
     1    15    16    1
     2    16     1    1
     3     1     2   ar
     4     2     3   ar
     5     3     4   ar
     6     4     5   ar
     7     5     6   ar
     8     6     7   ar
     9     7     8   ar
    10     8     9   ar
    11     9    10    1
    12     9    11   ar
    13    11    25    1
    14    25    26   ar
    15    26    27   ar
    16    27    28   ar
    17    28    32    1
    18    32    33    1
    19    33    34   ar
    20    34    35   ar
    21    35    36   ar
    22    36    37   ar
    23    37    38   ar
    24    28    29   ar
    25    29    30   ar
    26    30    31    1
    27    11    12   ar
    28    12    13   ar
    29    13    14   ar
    30    16    17    1
    31    17    18    1
    32    18    19    1
    33    19    22    1
    34    22    23    1
    35    23    24    3
    36    19    20    1
    37    20    21    1
    38    21    16    1
    39    14     1   ar
    40    14     4   ar
    41    13     7   ar
    42    30    25   ar
    43    38    33   ar
