@<TRIPOS>MOLECULE
*****
 31 35 0 0 0
SMALL
GASTEIGER

@<TRIPOS>ATOM
      1 N          62.2605   87.5439   11.4508 N.pl3   1  UNL1       -0.1665
      2 C          61.4194   87.7323   10.2232 C.ar    1  UNL1        0.0732
      3 C          60.8304   86.4337    9.7577 C.ar    1  UNL1        0.0163
      4 C          59.9537   86.4012    8.5410 C.ar    1  UNL1        0.0013
      5 C          59.6660   87.6673    7.7899 C.ar    1  UNL1       -0.0001
      6 C          60.2550   88.9659    8.2554 C.ar    1  UNL1        0.0006
      7 C          61.1317   88.9984    9.4720 C.ar    1  UNL1        0.0364
      8 C          61.6139   90.3887    9.7630 C.3     1  UNL1        0.2333
      9 O          62.5030   90.8563   10.8770 O.3     1  UNL1       -0.4692
     10 C          63.1294   90.0490   11.9751 C.ar    1  UNL1        0.1564
     11 C          63.9518   90.9100   12.8875 C.ar    1  UNL1        0.0679
     12 C          64.6663   90.2968   14.0552 C.ar    1  UNL1        0.1433
     13 F          65.4886   91.1578   14.9676 F       1  UNL1       -0.2041
     14 C          64.5583   88.8227   14.3106 C.ar    1  UNL1        0.0312
     15 C          63.7359   87.9617   13.3983 C.ar    1  UNL1        0.0219
     16 C          63.0215   88.5748   12.2306 C.ar    1  UNL1        0.1076
     17 S          62.3527   86.1385   11.9670 S.O2    1  UNL1        0.0802
     18 O          61.2248   86.4134   12.9169 O.2     1  UNL1       -0.1494
     19 O          63.4806   85.8636   11.0172 O.2     1  UNL1       -0.1494
     20 O          62.8237   78.4741   10.6312 O.2     1  UNL1       -0.2707
     21 C          62.7589   79.6235   11.5927 C.2     1  UNL1        0.2707
     22 C          62.7863   79.3676   13.0704 C.3     1  UNL1        0.2897
     23 O          62.7215   80.5171   14.0320 O.3     1  UNL1       -0.4643
     24 C          62.6293   81.9224   13.5158 C.ar    1  UNL1        0.1527
     25 C          62.5645   83.0718   14.4773 C.ar    1  UNL1        0.0396
     26 C          62.4723   84.4772   13.9611 C.ar    1  UNL1        0.0234
     27 C          62.4449   84.7331   12.4833 C.ar    1  UNL1        0.1272
     28 C          62.5097   83.5836   11.5218 C.ar    1  UNL1        0.0379
     29 C          62.6019   82.1784   12.0380 C.ar    1  UNL1        0.0862
     30 N          62.6667   81.0288   11.0764 N.am    1  UNL1       -0.2785
     31 H          62.6487   81.1968   10.1065 H       1  UNL1        0.1551
@<TRIPOS>BOND
     1    20    21    2
     2    21    22    1
     3    22    23    1
     4    23    24    1
     5    24    25   ar
     6    25    26   ar
     7    26    27   ar
     8    27    17    1
     9    17    18    2
    10    17    19    2
    11    17     1    1
    12     1     2    1
    13     2     3   ar
    14     3     4   ar
    15     4     5   ar
    16     5     6   ar
    17     6     7   ar
    18     7     8    1
    19     8     9    1
    20     9    10    1
    21    10    11   ar
    22    11    12   ar
    23    12    13    1
    24    12    14   ar
    25    14    15   ar
    26    15    16   ar
    27    27    28   ar
    28    28    29   ar
    29    29    30    1
    30    30    21   am
    31    29    24   ar
    32    16     1    1
    33     7     2   ar
    34    16    10   ar
    35    30    31    1
@<TRIPOS>MOLECULE
*****
 31 35 0 0 0
SMALL
GASTEIGER

@<TRIPOS>ATOM
      1 N          62.3227   87.5384   11.5452 N.pl3   1  UNL1       -0.1665
      2 C          63.0875   88.5604   12.3331 C.ar    1  UNL1        0.0732
      3 C          63.7995   87.9354   13.4960 C.ar    1  UNL1        0.0163
      4 C          64.6249   88.7862   14.4151 C.ar    1  UNL1        0.0013
      5 C          64.7383   90.2619   14.1714 C.ar    1  UNL1       -0.0001
      6 C          64.0262   90.8869   13.0086 C.ar    1  UNL1        0.0006
      7 C          63.2008   90.0361   12.0894 C.ar    1  UNL1        0.0364
      8 C          62.5774   90.8543   10.9976 C.3     1  UNL1        0.2333
      9 O          61.6868   90.3989    9.8798 O.3     1  UNL1       -0.4692
     10 C          61.1995   89.0127    9.5779 C.ar    1  UNL1        0.1564
     11 C          60.3228   88.9931    8.3609 C.ar    1  UNL1        0.0679
     12 C          59.7291   87.7003    7.8851 C.ar    1  UNL1        0.1433
     13 F          58.8524   87.6806    6.6681 F       1  UNL1       -0.2041
     14 C          60.0121   86.4273    8.6262 C.ar    1  UNL1        0.0312
     15 C          60.8888   86.4470    9.8431 C.ar    1  UNL1        0.0219
     16 C          61.4825   87.7397   10.3190 C.ar    1  UNL1        0.1076
     17 S          62.4098   86.1287   12.0503 S.O2    1  UNL1        0.0802
     18 O          61.3286   86.4196   13.0485 O.2     1  UNL1       -0.1494
     19 O          63.4910   85.8378   11.0520 O.2     1  UNL1       -0.1494
     20 O          62.7795   78.4693   10.6551 O.2     1  UNL1       -0.2707
     21 C          62.7433   79.6127   11.6252 C.2     1  UNL1        0.2707
     22 C          62.7941   79.3464   13.1005 C.3     1  UNL1        0.2897
     23 O          62.7579   80.4899   14.0708 O.3     1  UNL1       -0.4643
     24 C          62.6709   81.8996   13.5657 C.ar    1  UNL1        0.1527
     25 C          62.6347   83.0430   14.5358 C.ar    1  UNL1        0.0396
     26 C          62.5476   84.4527   14.0307 C.ar    1  UNL1        0.0234
     27 C          62.4968   84.7190   12.5554 C.ar    1  UNL1        0.1272
     28 C          62.5330   83.5755   11.5853 C.ar    1  UNL1        0.0379
     29 C          62.6201   82.1659   12.0903 C.ar    1  UNL1        0.0862
     30 N          62.6563   81.0224   11.1201 N.am    1  UNL1       -0.2785
     31 H          62.6229   81.1971   10.1518 H       1  UNL1        0.1551
@<TRIPOS>BOND
     1    20    21    2
     2    21    22    1
     3    22    23    1
     4    23    24    1
     5    24    25   ar
     6    25    26   ar
     7    26    27   ar
     8    27    17    1
     9    17    18    2
    10    17    19    2
    11    17     1    1
    12     1     2    1
    13     2     3   ar
    14     3     4   ar
    15     4     5   ar
    16     5     6   ar
    17     6     7   ar
    18     7     8    1
    19     8     9    1
    20     9    10    1
    21    10    11   ar
    22    11    12   ar
    23    12    13    1
    24    12    14   ar
    25    14    15   ar
    26    15    16   ar
    27    27    28   ar
    28    28    29   ar
    29    29    30    1
    30    30    21   am
    31    29    24   ar
    32    16     1    1
    33     7     2   ar
    34    16    10   ar
    35    30    31    1
@<TRIPOS>MOLECULE
*****
 31 35 0 0 0
SMALL
GASTEIGER

@<TRIPOS>ATOM
      1 N          62.0057   94.5966   -1.8428 N.pl3   1  UNL1       -0.1665
      2 C          63.2797   95.3732   -1.9979 C.ar    1  UNL1        0.0732
      3 C          64.1107   95.3177   -0.7504 C.ar    1  UNL1        0.0163
      4 C          65.4289   96.0312   -0.6950 C.ar    1  UNL1        0.0013
      5 C          65.9161   96.8004   -1.8871 C.ar    1  UNL1       -0.0001
      6 C          65.0850   96.8559   -3.1346 C.ar    1  UNL1        0.0006
      7 C          63.7669   96.1423   -3.1900 C.ar    1  UNL1        0.0364
      8 C          63.1004   96.3248   -4.5214 C.3     1  UNL1        0.2333
      9 O          61.7822   95.7832   -4.9896 O.3     1  UNL1       -0.4692
     10 C          60.8049   94.9254   -4.2419 C.ar    1  UNL1        0.1564
     11 C          59.6039   94.6040   -5.0811 C.ar    1  UNL1        0.0679
     12 C          58.5023   93.7545   -4.5198 C.ar    1  UNL1        0.1433
     13 F          57.3013   93.4331   -5.3591 F       1  UNL1       -0.2041
     14 C          58.6018   93.2264   -3.1195 C.ar    1  UNL1        0.0312
     15 C          59.8028   93.5478   -2.2802 C.ar    1  UNL1        0.0219
     16 C          60.9043   94.3973   -2.8414 C.ar    1  UNL1        0.1076
     17 S          61.8069   93.9313   -0.5132 S.O2    1  UNL1        0.0802
     18 O          61.1314   95.1668    0.0040 O.2     1  UNL1       -0.1494
     19 O          62.4824   92.6959   -1.0303 O.2     1  UNL1       -0.1494
     20 O          57.0798   91.6023    5.2297 O.2     1  UNL1       -0.2707
     21 C          58.4567   91.7134    4.6450 C.2     1  UNL1        0.2707
     22 C          59.6348   91.1591    5.3899 C.3     1  UNL1        0.2897
     23 O          61.0117   91.2702    4.8053 O.3     1  UNL1       -0.4643
     24 C          61.2105   91.9354    3.4757 C.ar    1  UNL1        0.1527
     25 C          62.5874   92.0465    2.8910 C.ar    1  UNL1        0.0396
     26 C          62.7862   92.7118    1.5614 C.ar    1  UNL1        0.0234
     27 C          61.6081   93.2660    0.8164 C.ar    1  UNL1        0.1272
     28 C          60.2313   93.1550    1.4012 C.ar    1  UNL1        0.0379
     29 C          60.0324   92.4897    2.7307 C.ar    1  UNL1        0.0862
     30 N          58.6555   92.3786    3.3154 N.am    1  UNL1       -0.2785
     31 H          57.8823   92.7424    2.8265 H       1  UNL1        0.1551
@<TRIPOS>BOND
     1    20    21    2
     2    21    22    1
     3    22    23    1
     4    23    24    1
     5    24    25   ar
     6    25    26   ar
     7    26    27   ar
     8    27    17    1
     9    17    18    2
    10    17    19    2
    11    17     1    1
    12     1     2    1
    13     2     3   ar
    14     3     4   ar
    15     4     5   ar
    16     5     6   ar
    17     6     7   ar
    18     7     8    1
    19     8     9    1
    20     9    10    1
    21    10    11   ar
    22    11    12   ar
    23    12    13    1
    24    12    14   ar
    25    14    15   ar
    26    15    16   ar
    27    27    28   ar
    28    28    29   ar
    29    29    30    1
    30    30    21   am
    31    29    24   ar
    32    16     1    1
    33     7     2   ar
    34    16    10   ar
    35    30    31    1
@<TRIPOS>MOLECULE
*****
 31 35 0 0 0
SMALL
GASTEIGER

@<TRIPOS>ATOM
      1 N          63.2131   95.3693   -2.0743 N.pl3   1  UNL1       -0.1665
      2 C          63.6711   95.5322   -3.4933 C.ar    1  UNL1        0.0732
      3 C          62.6590   94.9946   -4.4610 C.ar    1  UNL1        0.0163
      4 C          62.9231   95.0601   -5.9361 C.ar    1  UNL1        0.0013
      5 C          64.1993   95.6632   -6.4435 C.ar    1  UNL1       -0.0001
      6 C          65.2115   96.2008   -5.4758 C.ar    1  UNL1        0.0006
      7 C          64.9474   96.1353   -4.0007 C.ar    1  UNL1        0.0364
      8 C          66.0808   96.7244   -3.2143 C.3     1  UNL1        0.2333
      9 O          66.2179   96.8559   -1.7264 O.3     1  UNL1       -0.4692
     10 C          65.2554   96.4308   -0.6573 C.ar    1  UNL1        0.1564
     11 C          65.7815   96.7477    0.7112 C.ar    1  UNL1        0.0679
     12 C          64.9702   96.4029    1.9249 C.ar    1  UNL1        0.1433
     13 F          65.4963   96.7198    3.2934 F       1  UNL1       -0.2041
     14 C          63.6330   95.7413    1.7701 C.ar    1  UNL1        0.0312
     15 C          63.1069   95.4245    0.4016 C.ar    1  UNL1        0.0219
     16 C          63.9181   95.7692   -0.8121 C.ar    1  UNL1        0.1076
     17 S          61.8727   94.7207   -1.8935 S.O2    1  UNL1        0.0802
     18 O          62.5296   93.3726   -1.8599 O.2     1  UNL1       -0.1494
     19 O          61.2158   96.0688   -1.9270 O.2     1  UNL1       -0.1494
     20 O          55.7637   90.9047   -4.8714 O.2     1  UNL1       -0.2707
     21 C          56.4596   91.5281   -3.6980 C.2     1  UNL1        0.2707
     22 C          55.8152   91.5029   -2.3437 C.3     1  UNL1        0.2897
     23 O          56.5111   92.1263   -1.1702 O.3     1  UNL1       -0.4643
     24 C          57.8515   92.7749   -1.3510 C.ar    1  UNL1        0.1527
     25 C          58.5474   93.3983   -0.1776 C.ar    1  UNL1        0.0396
     26 C          59.8878   94.0469   -0.3584 C.ar    1  UNL1        0.0234
     27 C          60.5323   94.0721   -1.7127 C.ar    1  UNL1        0.1272
     28 C          59.8363   93.4487   -2.8861 C.ar    1  UNL1        0.0379
     29 C          58.4960   92.8001   -2.7053 C.ar    1  UNL1        0.0862
     30 N          57.8000   92.1767   -3.8788 N.am    1  UNL1       -0.2785
     31 H          58.2229   92.1932   -4.7676 H       1  UNL1        0.1551
@<TRIPOS>BOND
     1    20    21    2
     2    21    22    1
     3    22    23    1
     4    23    24    1
     5    24    25   ar
     6    25    26   ar
     7    26    27   ar
     8    27    17    1
     9    17    18    2
    10    17    19    2
    11    17     1    1
    12     1     2    1
    13     2     3   ar
    14     3     4   ar
    15     4     5   ar
    16     5     6   ar
    17     6     7   ar
    18     7     8    1
    19     8     9    1
    20     9    10    1
    21    10    11   ar
    22    11    12   ar
    23    12    13    1
    24    12    14   ar
    25    14    15   ar
    26    15    16   ar
    27    27    28   ar
    28    28    29   ar
    29    29    30    1
    30    30    21   am
    31    29    24   ar
    32    16     1    1
    33     7     2   ar
    34    16    10   ar
    35    30    31    1
@<TRIPOS>MOLECULE
*****
 31 35 0 0 0
SMALL
GASTEIGER

@<TRIPOS>ATOM
      1 N          62.1491   94.5543   -0.6210 N.pl3   1  UNL1       -0.1665
      2 C          63.2500   95.2829   -1.3332 C.ar    1  UNL1        0.0732
      3 C          62.7461   95.9613   -2.5725 C.ar    1  UNL1        0.0163
      4 C          63.6896   96.7477   -3.4334 C.ar    1  UNL1        0.0013
      5 C          65.1371   96.8558   -3.0550 C.ar    1  UNL1       -0.0001
      6 C          65.6410   96.1774   -1.8157 C.ar    1  UNL1        0.0006
      7 C          64.6975   95.3910   -0.9548 C.ar    1  UNL1        0.0364
      8 C          65.4015   94.7971    0.2291 C.3     1  UNL1        0.2333
      9 O          64.8320   93.9485    1.3271 O.3     1  UNL1       -0.4692
     10 C          63.4177   93.4842    1.5123 C.ar    1  UNL1        0.1564
     11 C          63.2728   92.6489    2.7498 C.ar    1  UNL1        0.0679
     12 C          61.9338   92.0832    3.1202 C.ar    1  UNL1        0.1433
     13 F          61.7889   91.2479    4.3576 F       1  UNL1       -0.2041
     14 C          60.7399   92.3528    2.2532 C.ar    1  UNL1        0.0312
     15 C          60.8848   93.1880    1.0158 C.ar    1  UNL1        0.0219
     16 C          62.2237   93.7538    0.6453 C.ar    1  UNL1        0.1076
     17 S          60.7944   94.6371   -1.2597 S.O2    1  UNL1        0.0802
     18 O          61.0552   93.3475   -1.9801 O.2     1  UNL1       -0.1494
     19 O          60.5336   95.9267   -0.5394 O.2     1  UNL1       -0.1494
     20 O          53.3191   96.8254   -0.9735 O.2     1  UNL1       -0.2707
     21 C          54.4561   96.1788   -1.7076 C.2     1  UNL1        0.2707
     22 C          54.2386   95.6150   -3.0805 C.3     1  UNL1        0.2897
     23 O          55.3756   94.9684   -3.8147 O.3     1  UNL1       -0.4643
     24 C          56.7303   94.8855   -3.1759 C.ar    1  UNL1        0.1527
     25 C          57.8674   94.2390   -3.9101 C.ar    1  UNL1        0.0396
     26 C          59.2221   94.1561   -3.2714 C.ar    1  UNL1        0.0234
     27 C          59.4397   94.7199   -1.8985 C.ar    1  UNL1        0.1272
     28 C          58.3026   95.3665   -1.1644 C.ar    1  UNL1        0.0379
     29 C          56.9480   95.4493   -1.8030 C.ar    1  UNL1        0.0862
     30 N          55.8108   96.0959   -1.0689 N.am    1  UNL1       -0.2785
     31 H          55.9537   96.4660   -0.1678 H       1  UNL1        0.1551
@<TRIPOS>BOND
     1    20    21    2
     2    21    22    1
     3    22    23    1
     4    23    24    1
     5    24    25   ar
     6    25    26   ar
     7    26    27   ar
     8    27    17    1
     9    17    18    2
    10    17    19    2
    11    17     1    1
    12     1     2    1
    13     2     3   ar
    14     3     4   ar
    15     4     5   ar
    16     5     6   ar
    17     6     7   ar
    18     7     8    1
    19     8     9    1
    20     9    10    1
    21    10    11   ar
    22    11    12   ar
    23    12    13    1
    24    12    14   ar
    25    14    15   ar
    26    15    16   ar
    27    27    28   ar
    28    28    29   ar
    29    29    30    1
    30    30    21   am
    31    29    24   ar
    32    16     1    1
    33     7     2   ar
    34    16    10   ar
    35    30    31    1
@<TRIPOS>MOLECULE
*****
 31 35 0 0 0
SMALL
GASTEIGER

@<TRIPOS>ATOM
      1 N          63.0301   88.1411   12.7600 N.pl3   1  UNL1       -0.1665
      2 C          62.0530   88.6642   11.7492 C.ar    1  UNL1        0.0732
      3 C          62.0451   90.1639   11.7197 C.ar    1  UNL1        0.0163
      4 C          61.1349   90.8906   10.7746 C.ar    1  UNL1        0.0013
      5 C          60.2326   90.1177    9.8590 C.ar    1  UNL1       -0.0001
      6 C          60.2405   88.6181    9.8884 C.ar    1  UNL1        0.0006
      7 C          61.1507   87.8913   10.8336 C.ar    1  UNL1        0.0364
      8 C          61.0026   86.4044   10.7026 C.3     1  UNL1        0.2333
      9 O          61.7202   85.3231   11.4549 O.3     1  UNL1       -0.4692
     10 C          62.7631   85.4618   12.5241 C.ar    1  UNL1        0.1564
     11 C          63.2243   84.1222   13.0167 C.ar    1  UNL1        0.0679
     12 C          64.2685   84.0367   14.0903 C.ar    1  UNL1        0.1433
     13 F          64.7297   82.6971   14.5830 F       1  UNL1       -0.2041
     14 C          64.8514   85.2907   14.6711 C.ar    1  UNL1        0.0312
     15 C          64.3903   86.6303   14.1784 C.ar    1  UNL1        0.0219
     16 C          63.3461   86.7159   13.1049 C.ar    1  UNL1        0.1076
     17 S          63.7918   89.1807   13.5275 S.O2    1  UNL1        0.0802
     18 O          64.3811   89.6941   12.2472 O.2     1  UNL1       -0.1494
     19 O          63.2025   88.6673   14.8078 O.2     1  UNL1       -0.1494
     20 O          70.3047   93.3086   14.6646 O.2     1  UNL1       -0.2707
     21 C          68.8955   92.9723   15.0530 C.2     1  UNL1        0.2707
     22 C          68.2479   93.6754   16.2090 C.3     1  UNL1        0.2897
     23 O          66.8387   93.3391   16.5975 O.3     1  UNL1       -0.4643
     24 C          66.0770   92.2995   15.8300 C.ar    1  UNL1        0.1527
     25 C          64.6678   91.9631   16.2185 C.ar    1  UNL1        0.0396
     26 C          63.9060   90.9235   15.4510 C.ar    1  UNL1        0.0234
     27 C          64.5536   90.2203   14.2950 C.ar    1  UNL1        0.1272
     28 C          65.9628   90.5567   13.9066 C.ar    1  UNL1        0.0379
     29 C          66.7245   91.5962   14.6740 C.ar    1  UNL1        0.0862
     30 N          68.1338   91.9327   14.2856 N.am    1  UNL1       -0.2785
     31 H          68.5587   91.4711   13.5269 H       1  UNL1        0.1551
@<TRIPOS>BOND
     1    20    21    2
     2    21    22    1
     3    22    23    1
     4    23    24    1
     5    24    25   ar
     6    25    26   ar
     7    26    27   ar
     8    27    17    1
     9    17    18    2
    10    17    19    2
    11    17     1    1
    12     1     2    1
    13     2     3   ar
    14     3     4   ar
    15     4     5   ar
    16     5     6   ar
    17     6     7   ar
    18     7     8    1
    19     8     9    1
    20     9    10    1
    21    10    11   ar
    22    11    12   ar
    23    12    13    1
    24    12    14   ar
    25    14    15   ar
    26    15    16   ar
    27    27    28   ar
    28    28    29   ar
    29    29    30    1
    30    30    21   am
    31    29    24   ar
    32    16     1    1
    33     7     2   ar
    34    16    10   ar
    35    30    31    1
@<TRIPOS>MOLECULE
*****
 31 35 0 0 0
SMALL
GASTEIGER

@<TRIPOS>ATOM
      1 N          60.6624   95.1158   -2.3037 N.pl3   1  UNL1       -0.1665
      2 C          61.8994   95.3589   -3.1166 C.ar    1  UNL1        0.0732
      3 C          63.1198   94.8178   -2.4326 C.ar    1  UNL1        0.0163
      4 C          64.4659   94.9574   -3.0794 C.ar    1  UNL1        0.0013
      5 C          64.5916   95.6381   -4.4102 C.ar    1  UNL1       -0.0001
      6 C          63.3712   96.1792   -5.0941 C.ar    1  UNL1        0.0006
      7 C          62.0251   96.0396   -4.4473 C.ar    1  UNL1        0.0364
      8 C          60.9449   96.6452   -5.2938 C.3     1  UNL1        0.2333
      9 O          59.4723   96.7197   -5.0186 O.3     1  UNL1       -0.4692
     10 C          58.7161   96.2070   -3.8289 C.ar    1  UNL1        0.1564
     11 C          57.2478   96.4890   -3.9498 C.ar    1  UNL1        0.0679
     12 C          56.3091   96.0572   -2.8623 C.ar    1  UNL1        0.1433
     13 F          54.8408   96.3392   -2.9831 F       1  UNL1       -0.2041
     14 C          56.8388   95.3434   -1.6541 C.ar    1  UNL1        0.0312
     15 C          58.3070   95.0614   -1.5332 C.ar    1  UNL1        0.0219
     16 C          59.2457   95.4932   -2.6206 C.ar    1  UNL1        0.1076
     17 S          60.8696   94.4006   -1.0015 S.O2    1  UNL1        0.0802
     18 O          61.1525   95.7103   -0.3272 O.2     1  UNL1       -0.1494
     19 O          60.5866   93.0909   -1.6758 O.2     1  UNL1       -0.1494
     20 O          57.9683   91.3213    5.5445 O.2     1  UNL1       -0.2707
     21 C          59.1425   91.6325    4.6647 C.2     1  UNL1        0.2707
     22 C          60.5240   91.2286    5.0870 C.3     1  UNL1        0.2897
     23 O          61.6984   91.5398    4.2071 O.3     1  UNL1       -0.4643
     24 C          61.4912   92.2550    2.9050 C.ar    1  UNL1        0.1527
     25 C          62.6654   92.5663    2.0252 C.ar    1  UNL1        0.0396
     26 C          62.4583   93.2815    0.7230 C.ar    1  UNL1        0.0234
     27 C          61.0768   93.6854    0.3007 C.ar    1  UNL1        0.1272
     28 C          59.9025   93.3741    1.1806 C.ar    1  UNL1        0.0379
     29 C          60.1097   92.6590    2.4826 C.ar    1  UNL1        0.0862
     30 N          58.9354   92.3477    3.3626 N.am    1  UNL1       -0.2785
     31 H          58.0286   92.6128    3.0854 H       1  UNL1        0.1551
@<TRIPOS>BOND
     1    20    21    2
     2    21    22    1
     3    22    23    1
     4    23    24    1
     5    24    25   ar
     6    25    26   ar
     7    26    27   ar
     8    27    17    1
     9    17    18    2
    10    17    19    2
    11    17     1    1
    12     1     2    1
    13     2     3   ar
    14     3     4   ar
    15     4     5   ar
    16     5     6   ar
    17     6     7   ar
    18     7     8    1
    19     8     9    1
    20     9    10    1
    21    10    11   ar
    22    11    12   ar
    23    12    13    1
    24    12    14   ar
    25    14    15   ar
    26    15    16   ar
    27    27    28   ar
    28    28    29   ar
    29    29    30    1
    30    30    21   am
    31    29    24   ar
    32    16     1    1
    33     7     2   ar
    34    16    10   ar
    35    30    31    1
@<TRIPOS>MOLECULE
*****
 31 35 0 0 0
SMALL
GASTEIGER

@<TRIPOS>ATOM
      1 N          64.9946   91.3775   13.5817 N.pl3   1  UNL1       -0.1665
      2 C          64.3972   91.5237   12.2135 C.ar    1  UNL1        0.0732
      3 C          63.4031   90.4366   11.9306 C.ar    1  UNL1        0.0163
      4 C          62.6883   90.3986   10.6124 C.ar    1  UNL1        0.0013
      5 C          62.9676   91.4477    9.5773 C.ar    1  UNL1       -0.0001
      6 C          63.9616   92.5347    9.8602 C.ar    1  UNL1        0.0006
      7 C          64.6765   92.5727   11.1784 C.ar    1  UNL1        0.0364
      8 C          65.6220   93.7346   11.2558 C.3     1  UNL1        0.2333
      9 O          66.5219   94.1345   12.3873 O.3     1  UNL1       -0.4692
     10 C          66.6983   93.4711   13.7210 C.ar    1  UNL1        0.1564
     11 C          67.7031   94.1973   14.5655 C.ar    1  UNL1        0.0679
     12 C          68.0282   93.6964   15.9416 C.ar    1  UNL1        0.1433
     13 F          69.0330   94.4225   16.7861 F       1  UNL1       -0.2041
     14 C          67.3486   92.4695   16.4731 C.ar    1  UNL1        0.0312
     15 C          66.3438   91.7433   15.6287 C.ar    1  UNL1        0.0219
     16 C          66.0187   92.2441   14.2527 C.ar    1  UNL1        0.1076
     17 S          64.5028   90.2102   14.3852 S.O2    1  UNL1        0.0802
     18 O          65.6342   89.3746   13.8638 O.2     1  UNL1       -0.1494
     19 O          63.3714   91.0458   14.9065 O.2     1  UNL1       -0.1494
     20 O          63.5168   82.5234   15.2160 O.2     1  UNL1       -0.2707
     21 C          63.3536   83.9183   15.7426 C.2     1  UNL1        0.2707
     22 C          62.6987   84.1461   17.0726 C.3     1  UNL1        0.2897
     23 O          62.5355   85.5412   17.5993 O.3     1  UNL1       -0.4643
     24 C          63.0273   86.7085   16.7958 C.ar    1  UNL1        0.1527
     25 C          62.8641   88.1034   17.3223 C.ar    1  UNL1        0.0396
     26 C          63.3559   89.2707   16.5188 C.ar    1  UNL1        0.0234
     27 C          64.0110   89.0429   15.1887 C.ar    1  UNL1        0.1272
     28 C          64.1741   87.6479   14.6622 C.ar    1  UNL1        0.0379
     29 C          63.6823   86.4807   15.4656 C.ar    1  UNL1        0.0862
     30 N          63.8455   85.0856   14.9391 N.am    1  UNL1       -0.2785
     31 H          64.2754   84.9361   14.0661 H       1  UNL1        0.1551
@<TRIPOS>BOND
     1    20    21    2
     2    21    22    1
     3    22    23    1
     4    23    24    1
     5    24    25   ar
     6    25    26   ar
     7    26    27   ar
     8    27    17    1
     9    17    18    2
    10    17    19    2
    11    17     1    1
    12     1     2    1
    13     2     3   ar
    14     3     4   ar
    15     4     5   ar
    16     5     6   ar
    17     6     7   ar
    18     7     8    1
    19     8     9    1
    20     9    10    1
    21    10    11   ar
    22    11    12   ar
    23    12    13    1
    24    12    14   ar
    25    14    15   ar
    26    15    16   ar
    27    27    28   ar
    28    28    29   ar
    29    29    30    1
    30    30    21   am
    31    29    24   ar
    32    16     1    1
    33     7     2   ar
    34    16    10   ar
    35    30    31    1
@<TRIPOS>MOLECULE
*****
 31 35 0 0 0
SMALL
GASTEIGER

@<TRIPOS>ATOM
      1 N          62.6931   87.0852   12.0083 N.pl3   1  UNL1       -0.1665
      2 C          63.2377   88.2903   12.7162 C.ar    1  UNL1        0.0732
      3 C          62.7415   89.5619   12.0944 C.ar    1  UNL1        0.0163
      4 C          63.1688   90.8866   12.6534 C.ar    1  UNL1        0.0013
      5 C          64.0923   90.9397   13.8342 C.ar    1  UNL1       -0.0001
      6 C          64.5885   89.6681   14.4560 C.ar    1  UNL1        0.0006
      7 C          64.1612   88.3434   13.8970 C.ar    1  UNL1        0.0364
      8 C          64.7681   87.2044   14.6615 C.3     1  UNL1        0.2333
      9 O          64.6015   85.7312   14.4342 O.3     1  UNL1       -0.4692
     10 C          63.7867   85.0330   13.3860 C.ar    1  UNL1        0.1564
     11 C          63.8954   83.5421   13.5104 C.ar    1  UNL1        0.0679
     12 C          63.1548   82.6538   12.5551 C.ar    1  UNL1        0.1433
     13 F          63.2635   81.1629   12.6795 F       1  UNL1       -0.2041
     14 C          62.3055   83.2564   11.4755 C.ar    1  UNL1        0.0312
     15 C          62.1968   84.7472   11.3511 C.ar    1  UNL1        0.0219
     16 C          62.9374   85.6355   12.3063 C.ar    1  UNL1        0.1076
     17 S          61.7839   87.3670   10.8490 S.O2    1  UNL1        0.0802
     18 O          60.6107   87.4208   11.7822 O.2     1  UNL1       -0.1494
     19 O          62.9571   87.3132    9.9158 O.2     1  UNL1       -0.1494
     20 O          59.3207   92.1506    5.2098 O.2     1  UNL1       -0.2707
     21 C          59.2326   90.8379    5.9302 C.2     1  UNL1        0.2707
     22 C          58.2353   89.8070    5.4914 C.3     1  UNL1        0.2897
     23 O          58.1471   88.4943    6.2119 O.3     1  UNL1       -0.4643
     24 C          59.0563   88.2125    7.3711 C.ar    1  UNL1        0.1527
     25 C          58.9682   86.8998    8.0915 C.ar    1  UNL1        0.0396
     26 C          59.8773   86.6180    9.2508 C.ar    1  UNL1        0.0234
     27 C          60.8747   87.6489    9.6897 C.ar    1  UNL1        0.1272
     28 C          60.9628   88.9615    8.9692 C.ar    1  UNL1        0.0379
     29 C          60.0537   89.2434    7.8100 C.ar    1  UNL1        0.0862
     30 N          60.1418   90.5561    7.0895 N.am    1  UNL1       -0.2785
     31 H          60.7964   91.2327    7.3775 H       1  UNL1        0.1551
@<TRIPOS>BOND
     1    20    21    2
     2    21    22    1
     3    22    23    1
     4    23    24    1
     5    24    25   ar
     6    25    26   ar
     7    26    27   ar
     8    27    17    1
     9    17    18    2
    10    17    19    2
    11    17     1    1
    12     1     2    1
    13     2     3   ar
    14     3     4   ar
    15     4     5   ar
    16     5     6   ar
    17     6     7   ar
    18     7     8    1
    19     8     9    1
    20     9    10    1
    21    10    11   ar
    22    11    12   ar
    23    12    13    1
    24    12    14   ar
    25    14    15   ar
    26    15    16   ar
    27    27    28   ar
    28    28    29   ar
    29    29    30    1
    30    30    21   am
    31    29    24   ar
    32    16     1    1
    33     7     2   ar
    34    16    10   ar
    35    30    31    1
