@<TRIPOS>MOLECULE
*****
 31 33 0 0 0
SMALL
GASTEIGER

@<TRIPOS>ATOM
      1 N          65.5411   92.4218   13.1275 N.am    1  UNL1       -0.2537
      2 C          65.2158   92.5792   11.6716 C.2     1  UNL1        0.2536
      3 O          64.1989   91.6832   11.0291 O.2     1  UNL1       -0.2695
      4 C          65.9076   93.6328   10.8583 C.ar    1  UNL1        0.0645
      5 C          65.3708   95.0332   10.8325 C.ar    1  UNL1        0.0062
      6 C          66.0626   96.0867   10.0192 C.ar    1  UNL1        0.0116
      7 C          67.2912   95.7399    9.2317 C.ar    1  UNL1        0.0585
      8 CL         67.9830   96.7934    8.4184 Cl      1  UNL1       -0.0822
      9 C          67.8280   94.3394    9.2574 C.ar    1  UNL1        0.0229
     10 C          67.1363   93.2859   10.0707 C.ar    1  UNL1        0.0629
     11 CL         67.6730   91.8855   10.0965 Cl      1  UNL1       -0.0821
     12 C          64.8493   91.3682   13.9408 C.ar    1  UNL1        0.0544
     13 C          64.4375   91.6611   15.3531 C.ar    1  UNL1        0.0180
     14 C          63.7457   90.6075   16.1664 C.ar    1  UNL1        0.0382
     15 C          63.4657   89.2612   15.5674 C.ar    1  UNL1        0.1391
     16 C          63.8775   88.9683   14.1551 C.ar    1  UNL1        0.0382
     17 C          64.5693   90.0218   13.3417 C.ar    1  UNL1        0.0180
     18 O          62.7739   88.2076   16.3808 O.3     1  UNL1       -0.4706
     19 C          63.5286   86.9922   16.8315 C.3     1  UNL1        0.2320
     20 C          63.6010   85.7833   15.9465 C.ar    1  UNL1        0.0212
     21 C          64.7649   85.6024   15.0177 C.ar    1  UNL1        0.0002
     22 C          64.8374   84.3935   14.1327 C.ar    1  UNL1        0.0112
     23 C          63.7459   83.3655   14.1765 C.ar    1  UNL1        0.0577
     24 CL         63.8183   82.1565   13.2915 Cl      1  UNL1       -0.0822
     25 C          62.5820   83.5464   15.1053 C.ar    1  UNL1        0.0112
     26 C          62.5096   84.7553   15.9903 C.ar    1  UNL1        0.0002
     27 C          66.5580   93.3179   13.7700 C.3     1  UNL1        0.1153
     28 N          68.6857   91.8457   13.5335 N.3     1  UNL1       -0.3197
     29 C          67.8053   92.7325   14.3631 C.3     1  UNL1        0.0873
     30 H          69.4827   91.5397   14.0916 H       1  UNL1        0.1189
     31 H          69.0189   92.3627   12.7198 H       1  UNL1        0.1189
@<TRIPOS>BOND
     1    28    29    1
     2    29    27    1
     3    27     1    1
     4     1     2   am
     5     2     3    2
     6     2     4    1
     7     4     5   ar
     8     5     6   ar
     9     6     7   ar
    10     7     8    1
    11     7     9   ar
    12     9    10   ar
    13    10    11    1
    14     1    12    1
    15    12    13   ar
    16    13    14   ar
    17    14    15   ar
    18    15    18    1
    19    18    19    1
    20    19    20    1
    21    20    21   ar
    22    21    22   ar
    23    22    23   ar
    24    23    24    1
    25    23    25   ar
    26    25    26   ar
    27    15    16   ar
    28    16    17   ar
    29    10     4   ar
    30    17    12   ar
    31    26    20   ar
    32    28    30    1
    33    28    31    1
@<TRIPOS>MOLECULE
*****
 31 33 0 0 0
SMALL
GASTEIGER

@<TRIPOS>ATOM
      1 N          63.1286   86.4960   12.8139 N.am    1  UNL1       -0.2537
      2 C          63.8228   85.4512   13.6366 C.2     1  UNL1        0.2536
      3 O          64.8821   85.8525   14.6198 O.2     1  UNL1       -0.2695
      4 C          63.4576   84.0053   13.4759 C.ar    1  UNL1        0.0645
      5 C          64.0795   83.1920   12.3796 C.ar    1  UNL1        0.0062
      6 C          63.7143   81.7461   12.2189 C.ar    1  UNL1        0.0116
      7 C          62.7273   81.1133   13.1545 C.ar    1  UNL1        0.0585
      8 CL         62.3621   79.6674   12.9938 Cl      1  UNL1       -0.0822
      9 C          62.1054   81.9266   14.2508 C.ar    1  UNL1        0.0229
     10 C          62.4706   83.3726   14.4115 C.ar    1  UNL1        0.0629
     11 CL         61.8487   84.1858   15.5078 Cl      1  UNL1       -0.0821
     12 C          63.4938   87.9420   12.9746 C.ar    1  UNL1        0.0544
     13 C          64.2710   88.3901   14.1767 C.ar    1  UNL1        0.0180
     14 C          64.6362   89.8361   14.3374 C.ar    1  UNL1        0.0382
     15 C          64.2242   90.8339   13.2960 C.ar    1  UNL1        0.1391
     16 C          63.4469   90.3858   12.0939 C.ar    1  UNL1        0.0382
     17 C          63.0817   88.9398   11.9332 C.ar    1  UNL1        0.0180
     18 O          64.5893   92.2799   13.4567 O.3     1  UNL1       -0.4706
     19 C          66.0093   92.7212   13.2598 C.3     1  UNL1        0.2320
     20 C          66.4107   93.4124   11.9905 C.ar    1  UNL1        0.0212
     21 C          67.0130   92.6241   10.8653 C.ar    1  UNL1        0.0002
     22 C          67.4144   93.3154    9.5961 C.ar    1  UNL1        0.0112
     23 C          67.2135   94.7949    9.4520 C.ar    1  UNL1        0.0577
     24 CL         67.6149   95.4862    8.1827 Cl      1  UNL1       -0.0822
     25 C          66.6113   95.5831   10.5771 C.ar    1  UNL1        0.0112
     26 C          66.2099   94.8919   11.8464 C.ar    1  UNL1        0.0002
     27 C          62.0693   86.0948   11.8307 C.3     1  UNL1        0.1153
     28 N          62.1207   86.6553    9.2943 N.3     1  UNL1       -0.3197
     29 C          62.4494   85.7281   10.4267 C.3     1  UNL1        0.0873
     30 H          62.4492   86.2508    8.4174 H       1  UNL1        0.1189
     31 H          62.5785   87.5539    9.4468 H       1  UNL1        0.1189
@<TRIPOS>BOND
     1    28    29    1
     2    29    27    1
     3    27     1    1
     4     1     2   am
     5     2     3    2
     6     2     4    1
     7     4     5   ar
     8     5     6   ar
     9     6     7   ar
    10     7     8    1
    11     7     9   ar
    12     9    10   ar
    13    10    11    1
    14     1    12    1
    15    12    13   ar
    16    13    14   ar
    17    14    15   ar
    18    15    18    1
    19    18    19    1
    20    19    20    1
    21    20    21   ar
    22    21    22   ar
    23    22    23   ar
    24    23    24    1
    25    23    25   ar
    26    25    26   ar
    27    15    16   ar
    28    16    17   ar
    29    10     4   ar
    30    17    12   ar
    31    26    20   ar
    32    28    30    1
    33    28    31    1
@<TRIPOS>MOLECULE
*****
 31 33 0 0 0
SMALL
GASTEIGER

@<TRIPOS>ATOM
      1 N          64.5244   91.4690   12.4834 N.am    1  UNL1       -0.2537
      2 C          65.1932   90.9076   13.7031 C.2     1  UNL1        0.2536
      3 O          64.7203   89.6097   14.2875 O.2     1  UNL1       -0.2695
      4 C          66.3351   91.6443   14.3383 C.ar    1  UNL1        0.0645
      5 C          67.6691   91.6935   13.6543 C.ar    1  UNL1        0.0062
      6 C          68.8110   92.4301   14.2895 C.ar    1  UNL1        0.0116
      7 C          68.6188   93.1176   15.6087 C.ar    1  UNL1        0.0585
      8 CL         69.7607   93.8543   16.2439 Cl      1  UNL1       -0.0822
      9 C          67.2848   93.0685   16.2928 C.ar    1  UNL1        0.0229
     10 C          66.1429   92.3318   15.6576 C.ar    1  UNL1        0.0629
     11 CL         64.8089   92.2827   16.3416 Cl      1  UNL1       -0.0821
     12 C          63.3825   90.7323   11.8482 C.ar    1  UNL1        0.0544
     13 C          62.3476   90.0685   12.7074 C.ar    1  UNL1        0.0180
     14 C          61.2057   89.3318   12.0722 C.ar    1  UNL1        0.0382
     15 C          61.0988   89.2589   10.5779 C.ar    1  UNL1        0.1391
     16 C          62.1337   89.9228    9.7186 C.ar    1  UNL1        0.0382
     17 C          63.2756   90.6595   10.3538 C.ar    1  UNL1        0.0180
     18 O          59.9569   88.5223    9.9427 O.3     1  UNL1       -0.4706
     19 C          60.2271   87.3604    9.0333 C.3     1  UNL1        0.2320
     20 C          61.2685   86.3457    9.4021 C.ar    1  UNL1        0.0212
     21 C          62.2040   85.8168    8.3556 C.ar    1  UNL1        0.0002
     22 C          63.2454   84.8022    8.7244 C.ar    1  UNL1        0.0112
     23 C          63.3513   84.3164   10.1396 C.ar    1  UNL1        0.0577
     24 CL         64.3927   83.3017   10.5084 Cl      1  UNL1       -0.0822
     25 C          62.4158   84.8453   11.1861 C.ar    1  UNL1        0.0112
     26 C          61.3744   85.8600   10.8173 C.ar    1  UNL1        0.0002
     27 C          64.9973   92.7669   11.8990 C.3     1  UNL1        0.1153
     28 N          67.0995   93.7816   10.7581 N.3     1  UNL1       -0.3197
     29 C          65.9960   92.7658   10.7797 C.3     1  UNL1        0.0873
     30 H          67.6804   93.6350    9.9327 H       1  UNL1        0.1189
     31 H          67.6701   93.6816   11.5976 H       1  UNL1        0.1189
@<TRIPOS>BOND
     1    28    29    1
     2    29    27    1
     3    27     1    1
     4     1     2   am
     5     2     3    2
     6     2     4    1
     7     4     5   ar
     8     5     6   ar
     9     6     7   ar
    10     7     8    1
    11     7     9   ar
    12     9    10   ar
    13    10    11    1
    14     1    12    1
    15    12    13   ar
    16    13    14   ar
    17    14    15   ar
    18    15    18    1
    19    18    19    1
    20    19    20    1
    21    20    21   ar
    22    21    22   ar
    23    22    23   ar
    24    23    24    1
    25    23    25   ar
    26    25    26   ar
    27    15    16   ar
    28    16    17   ar
    29    10     4   ar
    30    17    12   ar
    31    26    20   ar
    32    28    30    1
    33    28    31    1
@<TRIPOS>MOLECULE
*****
 31 33 0 0 0
SMALL
GASTEIGER

@<TRIPOS>ATOM
      1 N          63.7152   86.1647   13.7316 N.am    1  UNL1       -0.2537
      2 C          62.8524   85.4092   12.7646 C.2     1  UNL1        0.2536
      3 O          62.1433   86.1398   11.6631 O.2     1  UNL1       -0.2695
      4 C          62.6988   83.9232   12.8992 C.ar    1  UNL1        0.0645
      5 C          62.0573   83.3435   14.1249 C.ar    1  UNL1        0.0062
      6 C          61.9037   81.8575   14.2595 C.ar    1  UNL1        0.0116
      7 C          62.3916   80.9512   13.1684 C.ar    1  UNL1        0.0585
      8 CL         62.2380   79.4651   13.3031 Cl      1  UNL1       -0.0822
      9 C          63.0332   81.5309   11.9427 C.ar    1  UNL1        0.0229
     10 C          63.1868   83.0169   11.8081 C.ar    1  UNL1        0.0629
     11 CL         63.8284   83.5966   10.5824 Cl      1  UNL1       -0.0821
     12 C          63.8689   87.6507   13.5969 C.ar    1  UNL1        0.0544
     13 C          63.2771   88.3620   12.4163 C.ar    1  UNL1        0.0180
     14 C          63.4307   89.8480   12.2817 C.ar    1  UNL1        0.0382
     15 C          64.1761   90.6228   13.3277 C.ar    1  UNL1        0.1391
     16 C          64.7678   89.9115   14.5084 C.ar    1  UNL1        0.0382
     17 C          64.6142   88.4255   14.6430 C.ar    1  UNL1        0.0180
     18 O          64.3297   92.1088   13.1931 O.3     1  UNL1       -0.4706
     19 C          65.6973   92.7247   13.1955 C.3     1  UNL1        0.2320
     20 C          66.2065   93.4255   11.9709 C.ar    1  UNL1        0.0212
     21 C          66.7789   92.6302   10.8351 C.ar    1  UNL1        0.0002
     22 C          67.2880   93.3310    9.6105 C.ar    1  UNL1        0.0112
     23 C          67.2247   94.8270    9.5216 C.ar    1  UNL1        0.0577
     24 CL         67.7339   95.5278    8.2970 Cl      1  UNL1       -0.0822
     25 C          66.6523   95.6223   10.6574 C.ar    1  UNL1        0.0112
     26 C          66.1432   94.9215   11.8820 C.ar    1  UNL1        0.0002
     27 C          64.4244   85.4341   14.8330 C.3     1  UNL1        0.1153
     28 N          62.4939   85.8842   16.5125 N.3     1  UNL1       -0.3197
     29 C          63.9298   85.5430   16.2450 C.3     1  UNL1        0.0873
     30 H          62.3338   85.9158   17.5194 H       1  UNL1        0.1189
     31 H          61.8922   85.1743   16.0948 H       1  UNL1        0.1189
@<TRIPOS>BOND
     1    28    29    1
     2    29    27    1
     3    27     1    1
     4     1     2   am
     5     2     3    2
     6     2     4    1
     7     4     5   ar
     8     5     6   ar
     9     6     7   ar
    10     7     8    1
    11     7     9   ar
    12     9    10   ar
    13    10    11    1
    14     1    12    1
    15    12    13   ar
    16    13    14   ar
    17    14    15   ar
    18    15    18    1
    19    18    19    1
    20    19    20    1
    21    20    21   ar
    22    21    22   ar
    23    22    23   ar
    24    23    24    1
    25    23    25   ar
    26    25    26   ar
    27    15    16   ar
    28    16    17   ar
    29    10     4   ar
    30    17    12   ar
    31    26    20   ar
    32    28    30    1
    33    28    31    1
@<TRIPOS>MOLECULE
*****
 31 33 0 0 0
SMALL
GASTEIGER

@<TRIPOS>ATOM
      1 N          62.9407   86.2969   12.6836 N.am    1  UNL1       -0.2537
      2 C          63.6447   85.2796   13.5318 C.2     1  UNL1        0.2536
      3 O          64.7198   85.7118   14.4842 O.2     1  UNL1       -0.2695
      4 C          63.2735   83.8299   13.4275 C.ar    1  UNL1        0.0645
      5 C          62.3279   83.2245   14.4221 C.ar    1  UNL1        0.0062
      6 C          61.9567   81.7749   14.3178 C.ar    1  UNL1        0.0116
      7 C          62.5312   80.9307   13.2190 C.ar    1  UNL1        0.0585
      8 CL         62.1600   79.4811   13.1147 Cl      1  UNL1       -0.0822
      9 C          63.4768   81.5362   12.2244 C.ar    1  UNL1        0.0229
     10 C          63.8480   82.9858   12.3286 C.ar    1  UNL1        0.0629
     11 CL         64.7936   83.5913   11.3341 Cl      1  UNL1       -0.0821
     12 C          63.3118   87.7465   12.7878 C.ar    1  UNL1        0.0544
     13 C          62.8989   88.7058   11.7112 C.ar    1  UNL1        0.0180
     14 C          63.2700   90.1554   11.8155 C.ar    1  UNL1        0.0382
     15 C          64.0542   90.6457   12.9964 C.ar    1  UNL1        0.1391
     16 C          64.4672   89.6864   14.0731 C.ar    1  UNL1        0.0382
     17 C          64.0960   88.2368   13.9688 C.ar    1  UNL1        0.0180
     18 O          64.4254   92.0953   13.1006 O.3     1  UNL1       -0.4706
     19 C          65.8633   92.5104   13.0013 C.3     1  UNL1        0.2320
     20 C          66.3318   93.3167   11.8264 C.ar    1  UNL1        0.0212
     21 C          66.1852   94.8095   11.8349 C.ar    1  UNL1        0.0002
     22 C          66.6536   95.6158   10.6600 C.ar    1  UNL1        0.0112
     23 C          67.2687   94.9293    9.4765 C.ar    1  UNL1        0.0577
     24 CL         67.7371   95.7356    8.3016 Cl      1  UNL1       -0.0822
     25 C          67.4153   93.4365    9.4680 C.ar    1  UNL1        0.0112
     26 C          66.9468   92.6302   10.6430 C.ar    1  UNL1        0.0002
     27 C          61.8655   85.8646   11.7311 C.3     1  UNL1        0.1153
     28 N          61.2020   86.1556    9.2361 N.3     1  UNL1       -0.3197
     29 C          62.1794   85.6907   10.2746 C.3     1  UNL1        0.0873
     30 H          61.5746   85.9601    8.3069 H       1  UNL1        0.1189
     31 H          61.0501   87.1591    9.3373 H       1  UNL1        0.1189
@<TRIPOS>BOND
     1    28    29    1
     2    29    27    1
     3    27     1    1
     4     1     2   am
     5     2     3    2
     6     2     4    1
     7     4     5   ar
     8     5     6   ar
     9     6     7   ar
    10     7     8    1
    11     7     9   ar
    12     9    10   ar
    13    10    11    1
    14     1    12    1
    15    12    13   ar
    16    13    14   ar
    17    14    15   ar
    18    15    18    1
    19    18    19    1
    20    19    20    1
    21    20    21   ar
    22    21    22   ar
    23    22    23   ar
    24    23    24    1
    25    23    25   ar
    26    25    26   ar
    27    15    16   ar
    28    16    17   ar
    29    10     4   ar
    30    17    12   ar
    31    26    20   ar
    32    28    30    1
    33    28    31    1
@<TRIPOS>MOLECULE
*****
 31 33 0 0 0
SMALL
GASTEIGER

@<TRIPOS>ATOM
      1 N          63.6203   85.9842   13.5471 N.am    1  UNL1       -0.2537
      2 C          62.7088   85.1867   12.6620 C.2     1  UNL1        0.2536
      3 O          61.8813   85.8786   11.6197 O.2     1  UNL1       -0.2695
      4 C          62.6250   83.6973   12.8192 C.ar    1  UNL1        0.0645
      5 C          62.0186   83.1069   14.0576 C.ar    1  UNL1        0.0062
      6 C          61.9348   81.6175   14.2148 C.ar    1  UNL1        0.0116
      7 C          62.4573   80.7186   13.1337 C.ar    1  UNL1        0.0585
      8 CL         62.3734   79.2292   13.2909 Cl      1  UNL1       -0.0822
      9 C          63.0636   81.3090   11.8952 C.ar    1  UNL1        0.0229
     10 C          63.1475   82.7984   11.7380 C.ar    1  UNL1        0.0629
     11 CL         63.7539   83.3889   10.4996 Cl      1  UNL1       -0.0821
     12 C          63.7041   87.4736   13.3899 C.ar    1  UNL1        0.0544
     13 C          63.1198   88.1337   12.1764 C.ar    1  UNL1        0.0180
     14 C          63.2036   89.6231   12.0192 C.ar    1  UNL1        0.0382
     15 C          63.8719   90.4523   13.0755 C.ar    1  UNL1        0.1391
     16 C          64.4563   89.7922   14.2891 C.ar    1  UNL1        0.0382
     17 C          64.3724   88.3028   14.4463 C.ar    1  UNL1        0.0180
     18 O          63.9557   91.9417   12.9182 O.3     1  UNL1       -0.4706
     19 C          65.2699   92.5890   12.5961 C.3     1  UNL1        0.2320
     20 C          66.3869   92.5573   13.5968 C.ar    1  UNL1        0.0212
     21 C          66.1624   93.0715   14.9879 C.ar    1  UNL1        0.0002
     22 C          67.2793   93.0398   15.9886 C.ar    1  UNL1        0.0112
     23 C          68.6208   92.4938   15.5981 C.ar    1  UNL1        0.0577
     24 CL         69.7378   92.4620   16.5988 Cl      1  UNL1       -0.0822
     25 C          68.8453   91.9796   14.2071 C.ar    1  UNL1        0.0112
     26 C          67.7283   92.0114   13.2064 C.ar    1  UNL1        0.0002
     27 C          64.4478   85.2923   14.5894 C.3     1  UNL1        0.1153
     28 N          62.6626   85.5797   16.4551 N.3     1  UNL1       -0.3197
     29 C          64.0968   85.4332   16.0410 C.3     1  UNL1        0.0873
     30 H          62.6086   85.6630   17.4702 H       1  UNL1        0.1189
     31 H          62.1360   84.7601   16.1527 H       1  UNL1        0.1189
@<TRIPOS>BOND
     1    28    29    1
     2    29    27    1
     3    27     1    1
     4     1     2   am
     5     2     3    2
     6     2     4    1
     7     4     5   ar
     8     5     6   ar
     9     6     7   ar
    10     7     8    1
    11     7     9   ar
    12     9    10   ar
    13    10    11    1
    14     1    12    1
    15    12    13   ar
    16    13    14   ar
    17    14    15   ar
    18    15    18    1
    19    18    19    1
    20    19    20    1
    21    20    21   ar
    22    21    22   ar
    23    22    23   ar
    24    23    24    1
    25    23    25   ar
    26    25    26   ar
    27    15    16   ar
    28    16    17   ar
    29    10     4   ar
    30    17    12   ar
    31    26    20   ar
    32    28    30    1
    33    28    31    1
@<TRIPOS>MOLECULE
*****
 31 33 0 0 0
SMALL
GASTEIGER

@<TRIPOS>ATOM
      1 N          64.7695   91.7262   12.5515 N.am    1  UNL1       -0.2537
      2 C          65.4181   91.1344   13.7677 C.2     1  UNL1        0.2536
      3 O          64.8893   89.8591   14.3542 O.2     1  UNL1       -0.2695
      4 C          66.5955   91.8179   14.3975 C.ar    1  UNL1        0.0645
      5 C          67.9266   91.8079   13.7061 C.ar    1  UNL1        0.0062
      6 C          69.1040   92.4914   14.3358 C.ar    1  UNL1        0.0116
      7 C          68.9503   93.1850   15.6569 C.ar    1  UNL1        0.0585
      8 CL         70.1276   93.8685   16.2866 Cl      1  UNL1       -0.0822
      9 C          67.6191   93.1950   16.3484 C.ar    1  UNL1        0.0229
     10 C          66.4417   92.5115   15.7186 C.ar    1  UNL1        0.0629
     11 CL         65.1106   92.5215   16.4100 Cl      1  UNL1       -0.0821
     12 C          63.5922   91.0427   11.9218 C.ar    1  UNL1        0.0544
     13 C          63.3353   91.1937   10.4517 C.ar    1  UNL1        0.0180
     14 C          62.1579   90.5101    9.8220 C.ar    1  UNL1        0.0382
     15 C          61.2374   89.6756   10.6623 C.ar    1  UNL1        0.1391
     16 C          61.4943   89.5246   12.1325 C.ar    1  UNL1        0.0382
     17 C          62.6717   90.2081   12.7622 C.ar    1  UNL1        0.0180
     18 O          60.0600   88.9921   10.0326 O.3     1  UNL1       -0.4706
     19 C          59.9473   87.4971   10.0796 C.3     1  UNL1        0.2320
     20 C          60.6472   86.6594    9.0508 C.ar    1  UNL1        0.0212
     21 C          59.9061   86.1928    7.8330 C.ar    1  UNL1        0.0002
     22 C          60.6060   85.3551    6.8042 C.ar    1  UNL1        0.0112
     23 C          62.0472   84.9842    6.9932 C.ar    1  UNL1        0.0577
     24 CL         62.7471   84.1465    5.9644 Cl      1  UNL1       -0.0822
     25 C          62.7882   85.4509    8.2109 C.ar    1  UNL1        0.0112
     26 C          62.0883   86.2885    9.2397 C.ar    1  UNL1        0.0002
     27 C          65.2984   93.0015   11.9650 C.3     1  UNL1        0.1153
     28 N          67.1921   94.1237   10.5850 N.3     1  UNL1       -0.3197
     29 C          66.2858   92.9553   10.8367 C.3     1  UNL1        0.0873
     30 H          67.7930   93.9219    9.7859 H       1  UNL1        0.1189
     31 H          67.7682   94.2910   11.4100 H       1  UNL1        0.1189
@<TRIPOS>BOND
     1    28    29    1
     2    29    27    1
     3    27     1    1
     4     1     2   am
     5     2     3    2
     6     2     4    1
     7     4     5   ar
     8     5     6   ar
     9     6     7   ar
    10     7     8    1
    11     7     9   ar
    12     9    10   ar
    13    10    11    1
    14     1    12    1
    15    12    13   ar
    16    13    14   ar
    17    14    15   ar
    18    15    18    1
    19    18    19    1
    20    19    20    1
    21    20    21   ar
    22    21    22   ar
    23    22    23   ar
    24    23    24    1
    25    23    25   ar
    26    25    26   ar
    27    15    16   ar
    28    16    17   ar
    29    10     4   ar
    30    17    12   ar
    31    26    20   ar
    32    28    30    1
    33    28    31    1
@<TRIPOS>MOLECULE
*****
 31 33 0 0 0
SMALL
GASTEIGER

@<TRIPOS>ATOM
      1 N          62.7436   86.2664   12.3476 N.am    1  UNL1       -0.2537
      2 C          63.4561   85.3292   13.2772 C.2     1  UNL1        0.2536
      3 O          64.4865   85.8576   14.2305 O.2     1  UNL1       -0.2695
      4 C          63.1380   83.8635   13.2534 C.ar    1  UNL1        0.0645
      5 C          62.2328   83.2754   14.2949 C.ar    1  UNL1        0.0062
      6 C          61.9147   81.8097   14.2710 C.ar    1  UNL1        0.0116
      7 C          62.5018   80.9321   13.2057 C.ar    1  UNL1        0.0585
      8 CL         62.1837   79.4664   13.1819 Cl      1  UNL1       -0.0822
      9 C          63.4071   81.5201   12.1642 C.ar    1  UNL1        0.0229
     10 C          63.7252   82.9858   12.1880 C.ar    1  UNL1        0.0629
     11 CL         64.6304   83.5738   11.1465 Cl      1  UNL1       -0.0821
     12 C          63.0617   87.7321   12.3714 C.ar    1  UNL1        0.0544
     13 C          62.6151   88.6149   11.2440 C.ar    1  UNL1        0.0180
     14 C          62.9332   90.0806   11.2678 C.ar    1  UNL1        0.0382
     15 C          63.6978   90.6635   12.4191 C.ar    1  UNL1        0.1391
     16 C          64.1445   89.7807   13.5466 C.ar    1  UNL1        0.0382
     17 C          63.8264   88.3150   13.5228 C.ar    1  UNL1        0.0180
     18 O          64.0159   92.1292   12.4429 O.3     1  UNL1       -0.4706
     19 C          65.4189   92.5964   12.1913 C.3     1  UNL1        0.2320
     20 C          66.4365   92.5412   13.2920 C.ar    1  UNL1        0.0212
     21 C          66.0923   93.0565   14.6581 C.ar    1  UNL1        0.0002
     22 C          67.1099   93.0013   15.7588 C.ar    1  UNL1        0.0112
     23 C          68.4716   92.4308   15.4934 C.ar    1  UNL1        0.0577
     24 CL         69.4892   92.3756   16.5941 Cl      1  UNL1       -0.0822
     25 C          68.8157   91.9156   14.1274 C.ar    1  UNL1        0.0112
     26 C          67.7981   91.9708   13.0267 C.ar    1  UNL1        0.0002
     27 C          61.7131   85.7380   11.3943 C.3     1  UNL1        0.1153
     28 N          61.0044   86.1227    8.9245 N.3     1  UNL1       -0.3197
     29 C          62.0185   85.6591    9.9278 C.3     1  UNL1        0.0873
     30 H          61.3760   85.9977    7.9829 H       1  UNL1        0.1189
     31 H          60.7982   87.1093    9.0805 H       1  UNL1        0.1189
@<TRIPOS>BOND
     1    28    29    1
     2    29    27    1
     3    27     1    1
     4     1     2   am
     5     2     3    2
     6     2     4    1
     7     4     5   ar
     8     5     6   ar
     9     6     7   ar
    10     7     8    1
    11     7     9   ar
    12     9    10   ar
    13    10    11    1
    14     1    12    1
    15    12    13   ar
    16    13    14   ar
    17    14    15   ar
    18    15    18    1
    19    18    19    1
    20    19    20    1
    21    20    21   ar
    22    21    22   ar
    23    22    23   ar
    24    23    24    1
    25    23    25   ar
    26    25    26   ar
    27    15    16   ar
    28    16    17   ar
    29    10     4   ar
    30    17    12   ar
    31    26    20   ar
    32    28    30    1
    33    28    31    1
@<TRIPOS>MOLECULE
*****
 31 33 0 0 0
SMALL
GASTEIGER

@<TRIPOS>ATOM
      1 N          63.7615   86.2714   13.7845 N.am    1  UNL1       -0.2537
      2 C          62.9713   85.5019   12.7679 C.2     1  UNL1        0.2536
      3 O          62.3434   86.2166   11.6083 O.2     1  UNL1       -0.2695
      4 C          62.8092   84.0175   12.9110 C.ar    1  UNL1        0.0645
      5 C          63.2471   83.1050   11.8040 C.ar    1  UNL1        0.0062
      6 C          63.0849   81.6207   11.9472 C.ar    1  UNL1        0.0116
      7 C          62.4848   81.0489   13.1972 C.ar    1  UNL1        0.0585
      8 CL         62.3226   79.5646   13.3403 Cl      1  UNL1       -0.0822
      9 C          62.0467   81.9614   14.3043 C.ar    1  UNL1        0.0229
     10 C          62.2089   83.4457   14.1612 C.ar    1  UNL1        0.0629
     11 CL         61.7710   84.3582   15.2682 Cl      1  UNL1       -0.0821
     12 C          63.9237   87.7558   13.6414 C.ar    1  UNL1        0.0544
     13 C          64.6196   88.5410   14.7134 C.ar    1  UNL1        0.0180
     14 C          64.7818   90.0253   14.5703 C.ar    1  UNL1        0.0382
     15 C          64.2481   90.7244   13.3552 C.ar    1  UNL1        0.1391
     16 C          63.5522   89.9392   12.2832 C.ar    1  UNL1        0.0382
     17 C          63.3900   88.4549   12.4263 C.ar    1  UNL1        0.0180
     18 O          64.4103   92.2087   13.2121 O.3     1  UNL1       -0.4706
     19 C          65.7828   92.8113   13.1561 C.3     1  UNL1        0.2320
     20 C          66.2338   93.5365   11.9230 C.ar    1  UNL1        0.0212
     21 C          66.1300   95.0312   11.8517 C.ar    1  UNL1        0.0002
     22 C          66.5810   95.7564   10.6186 C.ar    1  UNL1        0.0112
     23 C          67.1358   94.9868    9.4566 C.ar    1  UNL1        0.0577
     24 CL         67.5868   95.7120    8.2235 Cl      1  UNL1       -0.0822
     25 C          67.2396   93.4922    9.5279 C.ar    1  UNL1        0.0112
     26 C          66.7886   92.7670   10.7611 C.ar    1  UNL1        0.0002
     27 C          64.3895   85.5567   14.9442 C.3     1  UNL1        0.1153
     28 N          66.7753   84.6442   14.4693 N.3     1  UNL1       -0.3197
     29 C          65.8731   85.6273   15.1545 C.3     1  UNL1        0.0873
     30 H          67.7441   84.8375   14.7233 H       1  UNL1        0.1189
     31 H          66.6654   84.7288   13.4588 H       1  UNL1        0.1189
@<TRIPOS>BOND
     1    28    29    1
     2    29    27    1
     3    27     1    1
     4     1     2   am
     5     2     3    2
     6     2     4    1
     7     4     5   ar
     8     5     6   ar
     9     6     7   ar
    10     7     8    1
    11     7     9   ar
    12     9    10   ar
    13    10    11    1
    14     1    12    1
    15    12    13   ar
    16    13    14   ar
    17    14    15   ar
    18    15    18    1
    19    18    19    1
    20    19    20    1
    21    20    21   ar
    22    21    22   ar
    23    22    23   ar
    24    23    24    1
    25    23    25   ar
    26    25    26   ar
    27    15    16   ar
    28    16    17   ar
    29    10     4   ar
    30    17    12   ar
    31    26    20   ar
    32    28    30    1
    33    28    31    1
