@<TRIPOS>MOLECULE
*****
 33 37 0 0 0
SMALL
GASTEIGER

@<TRIPOS>ATOM
      1 O          63.3839   87.2319   13.4487 O.2     1  UNL1       -0.2698
      2 C          62.9121   86.3120   12.3619 C.2     1  UNL1        0.2507
      3 N          62.0749   86.8465   11.2379 N.am    1  UNL1       -0.2723
      4 C          61.6030   85.9266   10.1511 C.3     1  UNL1        0.1257
      5 C          60.7658   86.4612    9.0270 C.3     1  UNL1        0.1637
      6 O          60.4005   87.9155    8.9899 O.3     1  UNL1       -0.3502
      7 C          60.8723   88.8354   10.0767 C.3     1  UNL1        0.1622
      8 C          61.7095   88.3009   11.2007 C.3     1  UNL1        0.1096
      9 C          63.2774   84.8576   12.3991 C.ar    1  UNL1        0.0738
     10 C          63.5445   84.1185   11.1215 C.ar    1  UNL1        0.0175
     11 C          63.9098   82.6642   11.1586 C.ar    1  UNL1        0.0579
     12 CL         64.1769   81.9251    9.8810 Cl      1  UNL1       -0.0822
     13 C          64.0081   81.9490   12.4734 C.ar    1  UNL1        0.0130
     14 C          63.7410   82.6881   13.7511 C.ar    1  UNL1        0.0219
     15 C          63.3757   84.1424   13.7139 C.ar    1  UNL1        0.1073
     16 N          63.1086   84.8815   14.9916 N.ar    1  UNL1       -0.1477
     17 N          61.7798   85.0077   15.6759 N.ar    1  UNL1       -0.1447
     18 C          61.9734   85.8284   16.9165 C.ar    1  UNL1        0.1446
     19 C          63.4219   86.2094   16.9989 C.ar    1  UNL1        0.1446
     20 N          64.1234   85.6242   15.8092 N.ar    1  UNL1       -0.1447
     21 C          62.1814   89.2208   12.2875 C.3     1  UNL1        0.0487
     22 C          63.2088   90.2715   11.9872 C.ar    1  UNL1       -0.0203
     23 C          63.2369   90.9294   10.6395 C.ar    1  UNL1       -0.0042
     24 C          64.2644   91.9803   10.3392 C.ar    1  UNL1       -0.0002
     25 C          65.2637   92.3732   11.3866 C.ar    1  UNL1        0.0030
     26 C          65.2355   91.7152   12.7343 C.ar    1  UNL1        0.0355
     27 C          64.2081   90.6644   13.0346 C.ar    1  UNL1       -0.0012
     28 C          66.2348   92.1081   13.7817 C.ar    1  UNL1        0.1622
     29 N          67.6948   92.1638   13.4420 N.ar    1  UNL1       -0.2250
     30 C          68.6941   92.5567   14.4894 C.ar    1  UNL1        0.1022
     31 C          68.2334   92.8938   15.8765 C.ar    1  UNL1        0.0414
     32 C          66.7735   92.8381   16.2162 C.ar    1  UNL1        0.1022
     33 N          65.7742   92.4452   15.1688 N.ar    1  UNL1       -0.2250
@<TRIPOS>BOND
     1     1     2    2
     2     2     9    1
     3     9    10   ar
     4    10    11   ar
     5    11    12    1
     6    11    13   ar
     7    13    14   ar
     8    14    15   ar
     9    15    16    1
    10    16    17   ar
    11    17    18   ar
    12    18    19   ar
    13    19    20   ar
    14     2     3   am
    15     3     4    1
    16     4     5    1
    17     5     6    1
    18     6     7    1
    19     7     8    1
    20     8    21    1
    21    21    22    1
    22    22    23   ar
    23    23    24   ar
    24    24    25   ar
    25    25    26   ar
    26    26    28    1
    27    28    29   ar
    28    29    30   ar
    29    30    31   ar
    30    31    32   ar
    31    32    33   ar
    32    26    27   ar
    33    15     9   ar
    34    20    16   ar
    35     8     3    1
    36    27    22   ar
    37    33    28   ar
@<TRIPOS>MOLECULE
*****
 33 37 0 0 0
SMALL
GASTEIGER

@<TRIPOS>ATOM
      1 O          62.6162   90.0005   11.5753 O.2     1  UNL1       -0.2698
      2 C          62.6508   88.5009   11.5759 C.2     1  UNL1        0.2507
      3 N          63.3144   87.7664   12.7029 N.am    1  UNL1       -0.2723
      4 C          63.3489   86.2668   12.7034 C.3     1  UNL1        0.1257
      5 C          64.0125   85.5323   13.8305 C.3     1  UNL1        0.1637
      6 O          64.6416   86.2975   14.9569 O.3     1  UNL1       -0.3502
      7 C          64.6071   87.7971   14.9563 C.3     1  UNL1        0.1622
      8 C          63.9435   88.5315   13.8294 C.3     1  UNL1        0.1096
      9 C          62.0217   87.7358   10.4494 C.ar    1  UNL1        0.0738
     10 C          62.8318   86.7380    9.6760 C.ar    1  UNL1        0.0175
     11 C          62.2028   85.9729    8.5496 C.ar    1  UNL1        0.0579
     12 CL         63.0128   84.9750    7.7763 Cl      1  UNL1       -0.0822
     13 C          60.7636   86.2056    8.1965 C.ar    1  UNL1        0.0130
     14 C          59.9535   87.2035    8.9699 C.ar    1  UNL1        0.0219
     15 C          60.5826   87.9685   10.0963 C.ar    1  UNL1        0.1073
     16 N          59.7725   88.9664   10.8696 N.ar    1  UNL1       -0.1477
     17 N          59.5676   90.4072   10.5062 N.ar    1  UNL1       -0.1447
     18 C          58.6935   91.0299   11.5541 C.ar    1  UNL1        0.1446
     19 C          58.3581   89.9740   12.5653 C.ar    1  UNL1        0.1446
     20 N          59.0250   88.6986   12.1422 N.ar    1  UNL1       -0.1447
     21 C          63.9089   90.0312   13.8288 C.3     1  UNL1        0.0487
     22 C          65.1891   90.8108   13.7715 C.ar    1  UNL1       -0.0203
     23 C          66.1532   90.7549   14.9193 C.ar    1  UNL1       -0.0042
     24 C          67.4334   91.5346   14.8621 C.ar    1  UNL1       -0.0002
     25 C          67.7494   92.3702   13.6571 C.ar    1  UNL1        0.0030
     26 C          66.7853   92.4260   12.5093 C.ar    1  UNL1        0.0355
     27 C          65.5051   91.6463   12.5665 C.ar    1  UNL1       -0.0012
     28 C          67.1013   93.2615   11.3043 C.ar    1  UNL1        0.1622
     29 N          67.8553   92.6634   10.1537 N.ar    1  UNL1       -0.2250
     30 C          68.1714   93.4989    8.9487 C.ar    1  UNL1        0.1022
     31 C          67.7334   94.9326    8.8943 C.ar    1  UNL1        0.0414
     32 C          66.9794   95.5306   10.0449 C.ar    1  UNL1        0.1022
     33 N          66.6634   94.6951   11.2499 N.ar    1  UNL1       -0.2250
@<TRIPOS>BOND
     1     1     2    2
     2     2     9    1
     3     9    10   ar
     4    10    11   ar
     5    11    12    1
     6    11    13   ar
     7    13    14   ar
     8    14    15   ar
     9    15    16    1
    10    16    17   ar
    11    17    18   ar
    12    18    19   ar
    13    19    20   ar
    14     2     3   am
    15     3     4    1
    16     4     5    1
    17     5     6    1
    18     6     7    1
    19     7     8    1
    20     8    21    1
    21    21    22    1
    22    22    23   ar
    23    23    24   ar
    24    24    25   ar
    25    25    26   ar
    26    26    28    1
    27    28    29   ar
    28    29    30   ar
    29    30    31   ar
    30    31    32   ar
    31    32    33   ar
    32    26    27   ar
    33    15     9   ar
    34    20    16   ar
    35     8     3    1
    36    27    22   ar
    37    33    28   ar
@<TRIPOS>MOLECULE
*****
 33 37 0 0 0
SMALL
GASTEIGER

@<TRIPOS>ATOM
      1 O          63.8142   87.6500   14.3189 O.2     1  UNL1       -0.2698
      2 C          63.3176   87.0284   13.0473 C.2     1  UNL1        0.2507
      3 N          62.7764   87.8959   11.9499 N.am    1  UNL1       -0.2723
      4 C          62.2798   87.2742   10.6783 C.3     1  UNL1        0.1257
      5 C          61.7386   88.1418    9.5808 C.3     1  UNL1        0.1637
      6 O          61.6941   89.6310    9.7549 O.3     1  UNL1       -0.3502
      7 C          62.1907   90.2526   11.0265 C.3     1  UNL1        0.1622
      8 C          62.7318   89.3851   12.1240 C.3     1  UNL1        0.1096
      9 C          63.3622   85.5391   12.8733 C.ar    1  UNL1        0.0738
     10 C          63.5897   84.9495   11.5129 C.ar    1  UNL1        0.0175
     11 C          63.6343   83.4604   11.3388 C.ar    1  UNL1        0.0579
     12 CL         63.8618   82.8708    9.9784 Cl      1  UNL1       -0.0822
     13 C          63.4514   82.5608   12.5250 C.ar    1  UNL1        0.0130
     14 C          63.2239   83.1504   13.8854 C.ar    1  UNL1        0.0219
     15 C          63.1793   84.6395   14.0595 C.ar    1  UNL1        0.1073
     16 N          62.9519   85.2291   15.4199 N.ar    1  UNL1       -0.1477
     17 N          64.0171   85.6817   16.3741 N.ar    1  UNL1       -0.1447
     18 C          63.3428   86.2020   17.6089 C.ar    1  UNL1        0.1446
     19 C          61.8608   86.0708   17.4179 C.ar    1  UNL1        0.1446
     20 N          61.6192   85.4696   16.0650 N.ar    1  UNL1       -0.1447
     21 C          63.2284   90.0068   13.3955 C.3     1  UNL1        0.0487
     22 C          64.5162   90.7759   13.4013 C.ar    1  UNL1       -0.0203
     23 C          65.4691   90.6344   14.5511 C.ar    1  UNL1       -0.0042
     24 C          66.7569   91.4036   14.5569 C.ar    1  UNL1       -0.0002
     25 C          67.0918   92.3142   13.4130 C.ar    1  UNL1        0.0030
     26 C          66.1388   92.4557   12.2632 C.ar    1  UNL1        0.0355
     27 C          64.8511   91.6865   12.2574 C.ar    1  UNL1       -0.0012
     28 C          66.4737   93.3663   11.1193 C.ar    1  UNL1        0.1622
     29 N          67.5621   92.9927   10.1570 N.ar    1  UNL1       -0.2250
     30 C          67.8970   93.9033    9.0131 C.ar    1  UNL1        0.1022
     31 C          67.1434   95.1876    8.8314 C.ar    1  UNL1        0.0414
     32 C          66.0550   95.5611    9.7936 C.ar    1  UNL1        0.1022
     33 N          65.7202   94.6505   10.9375 N.ar    1  UNL1       -0.2250
@<TRIPOS>BOND
     1     1     2    2
     2     2     9    1
     3     9    10   ar
     4    10    11   ar
     5    11    12    1
     6    11    13   ar
     7    13    14   ar
     8    14    15   ar
     9    15    16    1
    10    16    17   ar
    11    17    18   ar
    12    18    19   ar
    13    19    20   ar
    14     2     3   am
    15     3     4    1
    16     4     5    1
    17     5     6    1
    18     6     7    1
    19     7     8    1
    20     8    21    1
    21    21    22    1
    22    22    23   ar
    23    23    24   ar
    24    24    25   ar
    25    25    26   ar
    26    26    28    1
    27    28    29   ar
    28    29    30   ar
    29    30    31   ar
    30    31    32   ar
    31    32    33   ar
    32    26    27   ar
    33    15     9   ar
    34    20    16   ar
    35     8     3    1
    36    27    22   ar
    37    33    28   ar
@<TRIPOS>MOLECULE
*****
 33 37 0 0 0
SMALL
GASTEIGER

@<TRIPOS>ATOM
      1 O          63.4756   87.5000   13.1765 O.2     1  UNL1       -0.2698
      2 C          62.7972   87.3317   11.8493 C.2     1  UNL1        0.2507
      3 N          61.9891   88.4558   11.2721 N.am    1  UNL1       -0.2723
      4 C          61.3107   88.2875    9.9449 C.3     1  UNL1        0.1257
      5 C          60.5025   89.4117    9.3678 C.3     1  UNL1        0.1637
      6 O          60.3727   90.7042   10.1179 O.3     1  UNL1       -0.3502
      7 C          61.0511   90.8725   11.4451 C.3     1  UNL1        0.1622
      8 C          61.8592   89.7484   12.0222 C.3     1  UNL1        0.1096
      9 C          62.9271   86.0391   11.0992 C.ar    1  UNL1        0.0738
     10 C          62.8237   86.0268    9.6028 C.ar    1  UNL1        0.0175
     11 C          62.9536   84.7343    8.8527 C.ar    1  UNL1        0.0579
     12 CL         62.8502   84.7220    7.3563 Cl      1  UNL1       -0.0822
     13 C          63.1868   83.4543    9.5990 C.ar    1  UNL1        0.0130
     14 C          63.2901   83.4666   11.0954 C.ar    1  UNL1        0.0219
     15 C          63.1603   84.7591   11.8455 C.ar    1  UNL1        0.1073
     16 N          63.2637   84.7715   13.3419 N.ar    1  UNL1       -0.1477
     17 N          64.5320   84.8641   14.1373 N.ar    1  UNL1       -0.1447
     18 C          64.1690   84.8432   15.5926 C.ar    1  UNL1        0.1446
     19 C          62.6764   84.7378   15.6966 C.ar    1  UNL1        0.1446
     20 N          62.1168   84.6934   14.3055 N.ar    1  UNL1       -0.1447
     21 C          62.5376   89.9167   13.3494 C.3     1  UNL1        0.0487
     22 C          63.8659   90.6086   13.4304 C.ar    1  UNL1       -0.0203
     23 C          64.7077   90.4739   14.6645 C.ar    1  UNL1       -0.0042
     24 C          66.0362   91.1658   14.7456 C.ar    1  UNL1       -0.0002
     25 C          66.5227   91.9926   13.5924 C.ar    1  UNL1        0.0030
     26 C          65.6808   92.1273   12.3582 C.ar    1  UNL1        0.0355
     27 C          64.3525   91.4354   12.2772 C.ar    1  UNL1       -0.0012
     28 C          66.1674   92.9540   11.2050 C.ar    1  UNL1        0.1622
     29 N          65.5683   94.3044   10.9448 N.ar    1  UNL1       -0.2250
     30 C          66.0548   95.1312    9.7917 C.ar    1  UNL1        0.1022
     31 C          67.1404   94.6075    8.8987 C.ar    1  UNL1        0.0414
     32 C          67.7394   93.2572    9.1589 C.ar    1  UNL1        0.1022
     33 N          67.2529   92.4304   10.3121 N.ar    1  UNL1       -0.2250
@<TRIPOS>BOND
     1     1     2    2
     2     2     9    1
     3     9    10   ar
     4    10    11   ar
     5    11    12    1
     6    11    13   ar
     7    13    14   ar
     8    14    15   ar
     9    15    16    1
    10    16    17   ar
    11    17    18   ar
    12    18    19   ar
    13    19    20   ar
    14     2     3   am
    15     3     4    1
    16     4     5    1
    17     5     6    1
    18     6     7    1
    19     7     8    1
    20     8    21    1
    21    21    22    1
    22    22    23   ar
    23    23    24   ar
    24    24    25   ar
    25    25    26   ar
    26    26    28    1
    27    28    29   ar
    28    29    30   ar
    29    30    31   ar
    30    31    32   ar
    31    32    33   ar
    32    26    27   ar
    33    15     9   ar
    34    20    16   ar
    35     8     3    1
    36    27    22   ar
    37    33    28   ar
@<TRIPOS>MOLECULE
*****
 33 37 0 0 0
SMALL
GASTEIGER

@<TRIPOS>ATOM
      1 O          63.6009   87.8013   12.6872 O.2     1  UNL1       -0.2698
      2 C          62.6719   87.2971   11.6228 C.2     1  UNL1        0.2507
      3 N          61.5394   88.1577   11.1466 N.am    1  UNL1       -0.2723
      4 C          60.6104   87.6536   10.0823 C.3     1  UNL1        0.1257
      5 C          59.4779   88.5143    9.6061 C.3     1  UNL1        0.1637
      6 O          59.2745   89.8791   10.1942 O.3     1  UNL1       -0.3502
      7 C          60.2035   90.3833   11.2585 C.3     1  UNL1        0.1622
      8 C          61.3360   89.5226   11.7347 C.3     1  UNL1        0.1096
      9 C          62.8753   85.9322   11.0348 C.ar    1  UNL1        0.0738
     10 C          62.8100   85.7385    9.5487 C.ar    1  UNL1        0.0175
     11 C          63.0135   84.3737    8.9606 C.ar    1  UNL1        0.0579
     12 CL         62.9481   84.1800    7.4746 Cl      1  UNL1       -0.0822
     13 C          63.2822   83.2026    9.8585 C.ar    1  UNL1        0.0130
     14 C          63.3475   83.3963   11.3445 C.ar    1  UNL1        0.0219
     15 C          63.1441   84.7611   11.9327 C.ar    1  UNL1        0.1073
     16 N          63.2094   84.9548   13.4187 N.ar    1  UNL1       -0.1477
     17 N          62.0743   84.7728   14.3823 N.ar    1  UNL1       -0.1447
     18 C          62.5846   85.0700   15.7611 C.ar    1  UNL1        0.1446
     19 C          64.0351   85.4358   15.6497 C.ar    1  UNL1        0.1446
     20 N          64.4212   85.3646   14.2020 N.ar    1  UNL1       -0.1447
     21 C          62.2650   90.0268   12.7990 C.3     1  UNL1        0.0487
     22 C          63.4538   90.8606   12.4233 C.ar    1  UNL1       -0.0203
     23 C          63.5805   91.4013   11.0299 C.ar    1  UNL1       -0.0042
     24 C          64.7694   92.2352   10.6541 C.ar    1  UNL1       -0.0002
     25 C          65.8316   92.5284   11.6718 C.ar    1  UNL1        0.0030
     26 C          65.7050   91.9877   13.0653 C.ar    1  UNL1        0.0355
     27 C          64.5161   91.1538   13.4410 C.ar    1  UNL1       -0.0012
     28 C          66.7672   92.2809   14.0829 C.ar    1  UNL1        0.1622
     29 N          66.3846   92.5723   15.5038 N.ar    1  UNL1       -0.2250
     30 C          67.4469   92.8655   16.5215 C.ar    1  UNL1        0.1022
     31 C          68.8917   92.8673   16.1183 C.ar    1  UNL1        0.0414
     32 C          69.2742   92.5759   14.6975 C.ar    1  UNL1        0.1022
     33 N          68.2120   92.2827   13.6798 N.ar    1  UNL1       -0.2250
@<TRIPOS>BOND
     1     1     2    2
     2     2     9    1
     3     9    10   ar
     4    10    11   ar
     5    11    12    1
     6    11    13   ar
     7    13    14   ar
     8    14    15   ar
     9    15    16    1
    10    16    17   ar
    11    17    18   ar
    12    18    19   ar
    13    19    20   ar
    14     2     3   am
    15     3     4    1
    16     4     5    1
    17     5     6    1
    18     6     7    1
    19     7     8    1
    20     8    21    1
    21    21    22    1
    22    22    23   ar
    23    23    24   ar
    24    24    25   ar
    25    25    26   ar
    26    26    28    1
    27    28    29   ar
    28    29    30   ar
    29    30    31   ar
    30    31    32   ar
    31    32    33   ar
    32    26    27   ar
    33    15     9   ar
    34    20    16   ar
    35     8     3    1
    36    27    22   ar
    37    33    28   ar
@<TRIPOS>MOLECULE
*****
 33 37 0 0 0
SMALL
GASTEIGER

@<TRIPOS>ATOM
      1 O          63.6204   88.7089   12.2563 O.2     1  UNL1       -0.2698
      2 C          63.4477   87.6593   13.3139 C.2     1  UNL1        0.2507
      3 N          63.3675   88.0559   14.7582 N.am    1  UNL1       -0.2723
      4 C          63.1948   87.0063   15.8158 C.3     1  UNL1        0.1257
      5 C          63.1145   87.4030   17.2602 C.3     1  UNL1        0.1637
      6 O          63.2070   88.8493   17.6470 O.3     1  UNL1       -0.3502
      7 C          63.3797   89.8990   16.5894 C.3     1  UNL1        0.1622
      8 C          63.4599   89.5023   15.1450 C.3     1  UNL1        0.1096
      9 C          63.3553   86.2129   12.9270 C.ar    1  UNL1        0.0738
     10 C          64.1243   85.1801   13.6965 C.ar    1  UNL1        0.0175
     11 C          64.0318   83.7338   13.3097 C.ar    1  UNL1        0.0579
     12 CL         64.8008   82.7011   14.0792 Cl      1  UNL1       -0.0822
     13 C          63.1704   83.3203   12.1535 C.ar    1  UNL1        0.0130
     14 C          62.4014   84.3531   11.3841 C.ar    1  UNL1        0.0219
     15 C          62.4938   85.7994   11.7708 C.ar    1  UNL1        0.1073
     16 N          61.7248   86.8321   11.0014 N.ar    1  UNL1       -0.1477
     17 N          62.0422   87.3187    9.6185 N.ar    1  UNL1       -0.1447
     18 C          61.0170   88.3470    9.2421 C.ar    1  UNL1        0.1446
     19 C          60.0659   88.4958   10.3925 C.ar    1  UNL1        0.1446
     20 N          60.5034   87.5596   11.4797 N.ar    1  UNL1       -0.1447
     21 C          63.6326   90.5519   14.0875 C.3     1  UNL1        0.0487
     22 C          64.9671   91.2089   13.8936 C.ar    1  UNL1       -0.0203
     23 C          66.0649   90.9855   14.8910 C.ar    1  UNL1       -0.0042
     24 C          67.3995   91.6424   14.6972 C.ar    1  UNL1       -0.0002
     25 C          67.6361   92.5227   13.5060 C.ar    1  UNL1        0.0030
     26 C          66.5382   92.7461   12.5086 C.ar    1  UNL1        0.0355
     27 C          65.2037   92.0892   12.7024 C.ar    1  UNL1       -0.0012
     28 C          66.7748   93.6264   11.3173 C.ar    1  UNL1        0.1622
     29 N          67.6086   93.1314   10.1728 N.ar    1  UNL1       -0.2250
     30 C          67.8452   94.0117    8.9815 C.ar    1  UNL1        0.1022
     31 C          67.2481   95.3870    8.9348 C.ar    1  UNL1        0.0414
     32 C          66.4144   95.8820   10.0793 C.ar    1  UNL1        0.1022
     33 N          66.1778   95.0016   11.2706 N.ar    1  UNL1       -0.2250
@<TRIPOS>BOND
     1     1     2    2
     2     2     9    1
     3     9    10   ar
     4    10    11   ar
     5    11    12    1
     6    11    13   ar
     7    13    14   ar
     8    14    15   ar
     9    15    16    1
    10    16    17   ar
    11    17    18   ar
    12    18    19   ar
    13    19    20   ar
    14     2     3   am
    15     3     4    1
    16     4     5    1
    17     5     6    1
    18     6     7    1
    19     7     8    1
    20     8    21    1
    21    21    22    1
    22    22    23   ar
    23    23    24   ar
    24    24    25   ar
    25    25    26   ar
    26    26    28    1
    27    28    29   ar
    28    29    30   ar
    29    30    31   ar
    30    31    32   ar
    31    32    33   ar
    32    26    27   ar
    33    15     9   ar
    34    20    16   ar
    35     8     3    1
    36    27    22   ar
    37    33    28   ar
@<TRIPOS>MOLECULE
*****
 33 37 0 0 0
SMALL
GASTEIGER

@<TRIPOS>ATOM
      1 O          61.7731   85.7798   13.0994 O.2     1  UNL1       -0.2698
      2 C          62.3576   84.7175   12.2162 C.2     1  UNL1        0.2507
      3 N          62.6198   85.0068   10.7679 N.am    1  UNL1       -0.2723
      4 C          63.2043   83.9446    9.8848 C.3     1  UNL1        0.1257
      5 C          63.4665   84.2340    8.4364 C.3     1  UNL1        0.1637
      6 O          63.1442   85.5855    7.8713 O.3     1  UNL1       -0.3502
      7 C          62.5596   86.6478    8.7545 C.3     1  UNL1        0.1622
      8 C          62.2975   86.3585   10.2028 C.3     1  UNL1        0.1096
      9 C          62.6800   83.3659   12.7814 C.ar    1  UNL1        0.0738
     10 C          62.5163   82.1398   11.9329 C.ar    1  UNL1        0.0175
     11 C          62.8386   80.7882   12.4980 C.ar    1  UNL1        0.0579
     12 CL         62.6750   79.5621   11.6496 Cl      1  UNL1       -0.0822
     13 C          63.3246   80.6628   13.9115 C.ar    1  UNL1        0.0130
     14 C          63.4883   81.8890   14.7600 C.ar    1  UNL1        0.0219
     15 C          63.1660   83.2405   14.1949 C.ar    1  UNL1        0.1073
     16 N          63.3296   84.4666   15.0433 N.ar    1  UNL1       -0.1477
     17 N          64.4149   85.4933   14.9090 N.ar    1  UNL1       -0.1447
     18 C          64.1928   86.5426   15.9577 C.ar    1  UNL1        0.1446
     19 C          62.9702   86.1644   16.7401 C.ar    1  UNL1        0.1446
     20 N          62.4367   84.8814   16.1750 N.ar    1  UNL1       -0.1447
     21 C          61.7130   87.4207   11.0860 C.3     1  UNL1        0.0487
     22 C          62.3178   88.7931   11.1094 C.ar    1  UNL1       -0.0203
     23 C          62.2467   89.6649    9.8909 C.ar    1  UNL1       -0.0042
     24 C          62.8515   91.0374    9.9142 C.ar    1  UNL1       -0.0002
     25 C          63.5274   91.5380   11.1562 C.ar    1  UNL1        0.0030
     26 C          63.5985   90.6662   12.3748 C.ar    1  UNL1        0.0355
     27 C          62.9937   89.2937   12.3514 C.ar    1  UNL1       -0.0012
     28 C          64.2745   91.1668   13.6167 C.ar    1  UNL1        0.1622
     29 N          63.5702   91.0854   14.9387 N.ar    1  UNL1       -0.2250
     30 C          64.2462   91.5860   16.1807 C.ar    1  UNL1        0.1022
     31 C          65.6264   92.1681   16.1007 C.ar    1  UNL1        0.0414
     32 C          66.3305   92.2495   14.7788 C.ar    1  UNL1        0.1022
     33 N          65.6546   91.7488   13.5368 N.ar    1  UNL1       -0.2250
@<TRIPOS>BOND
     1     1     2    2
     2     2     9    1
     3     9    10   ar
     4    10    11   ar
     5    11    12    1
     6    11    13   ar
     7    13    14   ar
     8    14    15   ar
     9    15    16    1
    10    16    17   ar
    11    17    18   ar
    12    18    19   ar
    13    19    20   ar
    14     2     3   am
    15     3     4    1
    16     4     5    1
    17     5     6    1
    18     6     7    1
    19     7     8    1
    20     8    21    1
    21    21    22    1
    22    22    23   ar
    23    23    24   ar
    24    24    25   ar
    25    25    26   ar
    26    26    28    1
    27    28    29   ar
    28    29    30   ar
    29    30    31   ar
    30    31    32   ar
    31    32    33   ar
    32    26    27   ar
    33    15     9   ar
    34    20    16   ar
    35     8     3    1
    36    27    22   ar
    37    33    28   ar
