@<TRIPOS>MOLECULE
*****
 20 22 0 0 0
SMALL
GASTEIGER

@<TRIPOS>ATOM
      1 O          62.1437   90.9290    9.9582 O.3     1  UNL1       -0.5034
      2 C          62.7120   90.1665   11.1182 C.ar    1  UNL1        0.1611
      3 C          63.4107   90.8973   12.2261 C.ar    1  UNL1        0.0390
      4 C          63.9790   90.1348   13.3861 C.ar    1  UNL1        0.0033
      5 C          63.8486   88.6414   13.4382 C.ar    1  UNL1        0.0032
      6 C          64.4169   87.8789   14.5982 C.ar    1  UNL1        0.0001
      7 C          64.2865   86.3856   14.6503 C.ar    1  UNL1        0.0009
      8 C          63.5877   85.6546   13.5423 C.ar    1  UNL1        0.0122
      9 C          63.0194   86.4171   12.3823 C.ar    1  UNL1        0.0599
     10 CL         62.3206   85.6863   11.2744 Cl      1  UNL1       -0.0822
     11 C          63.1499   87.9106   12.3303 C.ar    1  UNL1        0.0411
     12 C          62.5816   88.6731   11.1703 C.ar    1  UNL1        0.1743
     13 F          61.8828   87.9422   10.0623 F       1  UNL1       -0.2010
     14 H          62.2252   91.8619    9.9257 H       1  UNL1        0.2923
     15 C          63.4573   84.1612   13.5944 C.ar    1  UNL1        0.0200
     16 C          64.2855   83.3038   12.6839 C.ar    1  UNL1        0.0032
     17 C          64.1550   81.8104   12.7359 C.ar    1  UNL1        0.0207
     18 C          63.1964   81.1744   13.6985 C.ar    1  UNL1        0.0989
     19 N          62.3682   82.0317   14.6090 N.ar    1  UNL1       -0.2423
     20 C          62.4986   83.5252   14.5569 C.ar    1  UNL1        0.0989
@<TRIPOS>BOND
     1     1     2    1
     2     2     3   ar
     3     3     4   ar
     4     4     5   ar
     5     5     6   ar
     6     6     7   ar
     7     7     8   ar
     8     8    15    1
     9    15    16   ar
    10    16    17   ar
    11    17    18   ar
    12    18    19   ar
    13    19    20   ar
    14     8     9   ar
    15     9    10    1
    16     9    11   ar
    17    11    12   ar
    18    12    13    1
    19    12     2   ar
    20    11     5   ar
    21    20    15   ar
    22     1    14    1
@<TRIPOS>MOLECULE
*****
 20 22 0 0 0
SMALL
GASTEIGER

@<TRIPOS>ATOM
      1 O          64.1829   91.7537   13.4062 O.3     1  UNL1       -0.5034
      2 C          63.5830   90.5823   12.6865 C.ar    1  UNL1        0.1611
      3 C          62.7581   90.8021   11.4532 C.ar    1  UNL1        0.0390
      4 C          62.1582   89.6307   10.7335 C.ar    1  UNL1        0.0033
      5 C          62.3831   88.2395   11.2472 C.ar    1  UNL1        0.0032
      6 C          61.7832   87.0681   10.5275 C.ar    1  UNL1        0.0001
      7 C          62.0082   85.6769   11.0412 C.ar    1  UNL1        0.0009
      8 C          62.8332   85.4570   12.2746 C.ar    1  UNL1        0.0122
      9 C          63.4331   86.6284   12.9943 C.ar    1  UNL1        0.0599
     10 CL         64.2580   86.4086   14.2276 Cl      1  UNL1       -0.0822
     11 C          63.2081   88.0197   12.4805 C.ar    1  UNL1        0.0411
     12 C          63.8080   89.1911   13.2002 C.ar    1  UNL1        0.1743
     13 F          64.6329   88.9712   14.4336 F       1  UNL1       -0.2010
     14 H          64.0424   92.6227   13.0853 H       1  UNL1        0.2923
     15 C          63.0582   84.0658   12.7883 C.ar    1  UNL1        0.0200
     16 C          63.9568   83.1262   12.0400 C.ar    1  UNL1        0.0032
     17 C          64.1818   81.7350   12.5537 C.ar    1  UNL1        0.0207
     18 C          63.5082   81.2834   13.8156 C.ar    1  UNL1        0.0989
     19 N          62.6096   82.2229   14.5638 N.ar    1  UNL1       -0.2423
     20 C          62.3846   83.6142   14.0501 C.ar    1  UNL1        0.0989
@<TRIPOS>BOND
     1     1     2    1
     2     2     3   ar
     3     3     4   ar
     4     4     5   ar
     5     5     6   ar
     6     6     7   ar
     7     7     8   ar
     8     8    15    1
     9    15    16   ar
    10    16    17   ar
    11    17    18   ar
    12    18    19   ar
    13    19    20   ar
    14     8     9   ar
    15     9    10    1
    16     9    11   ar
    17    11    12   ar
    18    12    13    1
    19    12     2   ar
    20    11     5   ar
    21    20    15   ar
    22     1    14    1
@<TRIPOS>MOLECULE
*****
 20 22 0 0 0
SMALL
GASTEIGER

@<TRIPOS>ATOM
      1 O          66.7197   92.7573   16.5397 O.3     1  UNL1       -0.5034
      2 C          66.2656   92.7076   15.1110 C.ar    1  UNL1        0.1611
      3 C          66.8703   93.6351   14.0991 C.ar    1  UNL1        0.0390
      4 C          66.4161   93.5854   12.6704 C.ar    1  UNL1        0.0033
      5 C          65.3573   92.6082   12.2535 C.ar    1  UNL1        0.0032
      6 C          64.9032   92.5585   10.8248 C.ar    1  UNL1        0.0001
      7 C          63.8443   91.5812   10.4079 C.ar    1  UNL1        0.0009
      8 C          63.2396   90.6536   11.4198 C.ar    1  UNL1        0.0122
      9 C          63.6937   90.7033   12.8486 C.ar    1  UNL1        0.0599
     10 CL         63.0890   89.7758   13.8605 Cl      1  UNL1       -0.0822
     11 C          64.7526   91.6806   13.2654 C.ar    1  UNL1        0.0411
     12 C          65.2067   91.7303   14.6941 C.ar    1  UNL1        0.1743
     13 F          64.6020   90.8027   15.7060 F       1  UNL1       -0.2010
     14 H          67.3811   93.3677   16.8001 H       1  UNL1        0.2923
     15 C          62.1807   89.6764   11.0030 C.ar    1  UNL1        0.0200
     16 C          62.5463   88.4854   10.1675 C.ar    1  UNL1        0.0032
     17 C          61.4875   87.5081    9.7507 C.ar    1  UNL1        0.0207
     18 C          60.0630   87.7218   10.1692 C.ar    1  UNL1        0.0989
     19 N          59.6974   88.9127   11.0046 N.ar    1  UNL1       -0.2423
     20 C          60.7562   89.8900   11.4215 C.ar    1  UNL1        0.0989
@<TRIPOS>BOND
     1     1     2    1
     2     2     3   ar
     3     3     4   ar
     4     4     5   ar
     5     5     6   ar
     6     6     7   ar
     7     7     8   ar
     8     8    15    1
     9    15    16   ar
    10    16    17   ar
    11    17    18   ar
    12    18    19   ar
    13    19    20   ar
    14     8     9   ar
    15     9    10    1
    16     9    11   ar
    17    11    12   ar
    18    12    13    1
    19    12     2   ar
    20    11     5   ar
    21    20    15   ar
    22     1    14    1
@<TRIPOS>MOLECULE
*****
 20 22 0 0 0
SMALL
GASTEIGER

@<TRIPOS>ATOM
      1 O          66.7676   94.9569   12.0608 O.3     1  UNL1       -0.5034
      2 C          66.2004   93.6677   12.5768 C.ar    1  UNL1        0.1611
      3 C          66.6293   93.1418   13.9145 C.ar    1  UNL1        0.0390
      4 C          66.0621   91.8526   14.4305 C.ar    1  UNL1        0.0033
      5 C          65.0661   91.0892   13.6088 C.ar    1  UNL1        0.0032
      6 C          64.4989   89.8000   14.1248 C.ar    1  UNL1        0.0001
      7 C          63.5029   89.0367   13.3031 C.ar    1  UNL1        0.0009
      8 C          63.0739   89.5626   11.9654 C.ar    1  UNL1        0.0122
      9 C          63.6411   90.8518   11.4494 C.ar    1  UNL1        0.0599
     10 CL         63.2122   91.3777   10.1117 Cl      1  UNL1       -0.0822
     11 C          64.6372   91.6152   12.2711 C.ar    1  UNL1        0.0411
     12 C          65.2043   92.9044   11.7551 C.ar    1  UNL1        0.1743
     13 F          64.7754   93.4303   10.4174 F       1  UNL1       -0.2010
     14 H          67.3898   95.4337   12.5741 H       1  UNL1        0.2923
     15 C          62.0778   88.7993   11.1437 C.ar    1  UNL1        0.0200
     16 C          62.5510   87.8460   10.0866 C.ar    1  UNL1        0.0032
     17 C          61.5549   87.0827    9.2650 C.ar    1  UNL1        0.0207
     18 C          60.0857   87.2727    9.5003 C.ar    1  UNL1        0.0989
     19 N          59.6126   88.2260   10.5573 N.ar    1  UNL1       -0.2423
     20 C          60.6087   88.9893   11.3791 C.ar    1  UNL1        0.0989
@<TRIPOS>BOND
     1     1     2    1
     2     2     3   ar
     3     3     4   ar
     4     4     5   ar
     5     5     6   ar
     6     6     7   ar
     7     7     8   ar
     8     8    15    1
     9    15    16   ar
    10    16    17   ar
    11    17    18   ar
    12    18    19   ar
    13    19    20   ar
    14     8     9   ar
    15     9    10    1
    16     9    11   ar
    17    11    12   ar
    18    12    13    1
    19    12     2   ar
    20    11     5   ar
    21    20    15   ar
    22     1    14    1
@<TRIPOS>MOLECULE
*****
 20 22 0 0 0
SMALL
GASTEIGER

@<TRIPOS>ATOM
      1 O          60.8860   87.1253    8.6910 O.3     1  UNL1       -0.5034
      2 C          61.6308   86.9658    9.9833 C.ar    1  UNL1        0.1611
      3 C          61.8676   85.5967   10.5484 C.ar    1  UNL1        0.0390
      4 C          62.6124   85.4372   11.8407 C.ar    1  UNL1        0.0033
      5 C          63.1203   86.6468   12.5678 C.ar    1  UNL1        0.0032
      6 C          63.8651   86.4873   13.8600 C.ar    1  UNL1        0.0001
      7 C          64.3730   87.6970   14.5871 C.ar    1  UNL1        0.0009
      8 C          64.1363   89.0662   14.0220 C.ar    1  UNL1        0.0122
      9 C          63.3915   89.2256   12.7297 C.ar    1  UNL1        0.0599
     10 CL         63.1547   90.5947   12.1646 Cl      1  UNL1       -0.0822
     11 C          62.8835   88.0159   12.0026 C.ar    1  UNL1        0.0411
     12 C          62.1387   88.1754   10.7104 C.ar    1  UNL1        0.1743
     13 F          61.9020   89.5446   10.1453 F       1  UNL1       -0.2010
     14 H          60.5687   86.3696    8.2368 H       1  UNL1        0.2923
     15 C          64.6442   90.2758   14.7491 C.ar    1  UNL1        0.0200
     16 C          65.9719   90.8693   14.3815 C.ar    1  UNL1        0.0032
     17 C          66.4799   92.0789   15.1086 C.ar    1  UNL1        0.0207
     18 C          65.6602   92.6951   16.2033 C.ar    1  UNL1        0.0989
     19 N          64.3326   92.1016   16.5710 N.ar    1  UNL1       -0.2423
     20 C          63.8246   90.8920   15.8439 C.ar    1  UNL1        0.0989
@<TRIPOS>BOND
     1     1     2    1
     2     2     3   ar
     3     3     4   ar
     4     4     5   ar
     5     5     6   ar
     6     6     7   ar
     7     7     8   ar
     8     8    15    1
     9    15    16   ar
    10    16    17   ar
    11    17    18   ar
    12    18    19   ar
    13    19    20   ar
    14     8     9   ar
    15     9    10    1
    16     9    11   ar
    17    11    12   ar
    18    12    13    1
    19    12     2   ar
    20    11     5   ar
    21    20    15   ar
    22     1    14    1
@<TRIPOS>MOLECULE
*****
 20 22 0 0 0
SMALL
GASTEIGER

@<TRIPOS>ATOM
      1 O          62.4702   83.6019   11.8819 O.3     1  UNL1       -0.5034
      2 C          62.4915   85.0865   11.6680 C.ar    1  UNL1        0.1611
      3 C          61.8564   85.6771   10.4442 C.ar    1  UNL1        0.0390
      4 C          61.8778   87.1616   10.2303 C.ar    1  UNL1        0.0033
      5 C          62.5342   88.0555   11.2403 C.ar    1  UNL1        0.0032
      6 C          62.5556   89.5400   11.0264 C.ar    1  UNL1        0.0001
      7 C          63.2121   90.4339   12.0363 C.ar    1  UNL1        0.0009
      8 C          63.8472   89.8433   13.2602 C.ar    1  UNL1        0.0122
      9 C          63.8258   88.3587   13.4741 C.ar    1  UNL1        0.0599
     10 CL         64.4609   87.7681   14.6979 Cl      1  UNL1       -0.0822
     11 C          63.1693   87.4649   12.4641 C.ar    1  UNL1        0.0411
     12 C          63.1480   85.9803   12.6779 C.ar    1  UNL1        0.1743
     13 F          63.7831   85.3897   13.9018 F       1  UNL1       -0.2010
     14 H          62.0601   83.0436   11.2510 H       1  UNL1        0.2923
     15 C          64.5036   90.7371   14.2701 C.ar    1  UNL1        0.0200
     16 C          65.8948   91.2446   14.0307 C.ar    1  UNL1        0.0032
     17 C          66.5512   92.1385   15.0406 C.ar    1  UNL1        0.0207
     18 C          65.8166   92.5250   16.2900 C.ar    1  UNL1        0.0989
     19 N          64.4256   92.0175   16.5295 N.ar    1  UNL1       -0.2423
     20 C          63.7690   91.1236   15.5195 C.ar    1  UNL1        0.0989
@<TRIPOS>BOND
     1     1     2    1
     2     2     3   ar
     3     3     4   ar
     4     4     5   ar
     5     5     6   ar
     6     6     7   ar
     7     7     8   ar
     8     8    15    1
     9    15    16   ar
    10    16    17   ar
    11    17    18   ar
    12    18    19   ar
    13    19    20   ar
    14     8     9   ar
    15     9    10    1
    16     9    11   ar
    17    11    12   ar
    18    12    13    1
    19    12     2   ar
    20    11     5   ar
    21    20    15   ar
    22     1    14    1
@<TRIPOS>MOLECULE
*****
 20 22 0 0 0
SMALL
GASTEIGER

@<TRIPOS>ATOM
      1 O          63.6219   82.6123   15.2670 O.3     1  UNL1       -0.5034
      2 C          63.6655   82.9018   13.7958 C.ar    1  UNL1        0.1611
      3 C          64.5179   82.0621   12.8912 C.ar    1  UNL1        0.0390
      4 C          64.5615   82.3516   11.4200 C.ar    1  UNL1        0.0033
      5 C          63.7528   83.4808   10.8535 C.ar    1  UNL1        0.0032
      6 C          63.7964   83.7703    9.3824 C.ar    1  UNL1        0.0001
      7 C          62.9877   84.8994    8.8159 C.ar    1  UNL1        0.0009
      8 C          62.1352   85.7391    9.7205 C.ar    1  UNL1        0.0122
      9 C          62.0916   85.4496   11.1917 C.ar    1  UNL1        0.0599
     10 CL         61.2393   86.2892   12.0963 Cl      1  UNL1       -0.0822
     11 C          62.9004   84.3204   11.7582 C.ar    1  UNL1        0.0411
     12 C          62.8568   84.0309   13.2293 C.ar    1  UNL1        0.1743
     13 F          62.0044   84.8706   14.1340 F       1  UNL1       -0.2010
     14 H          64.1271   81.9069   15.6209 H       1  UNL1        0.2923
     15 C          61.3265   86.8682    9.1540 C.ar    1  UNL1        0.0200
     16 C          60.2264   86.5851    8.1744 C.ar    1  UNL1        0.0032
     17 C          59.4177   87.7143    7.6079 C.ar    1  UNL1        0.0207
     18 C          59.7090   89.1265    8.0210 C.ar    1  UNL1        0.0989
     19 N          60.8090   89.4097    9.0006 N.ar    1  UNL1       -0.2423
     20 C          61.6178   88.2805    9.5671 C.ar    1  UNL1        0.0989
@<TRIPOS>BOND
     1     1     2    1
     2     2     3   ar
     3     3     4   ar
     4     4     5   ar
     5     5     6   ar
     6     6     7   ar
     7     7     8   ar
     8     8    15    1
     9    15    16   ar
    10    16    17   ar
    11    17    18   ar
    12    18    19   ar
    13    19    20   ar
    14     8     9   ar
    15     9    10    1
    16     9    11   ar
    17    11    12   ar
    18    12    13    1
    19    12     2   ar
    20    11     5   ar
    21    20    15   ar
    22     1    14    1
@<TRIPOS>MOLECULE
*****
 20 22 0 0 0
SMALL
GASTEIGER

@<TRIPOS>ATOM
      1 O          65.0606   92.5844   13.7067 O.3     1  UNL1       -0.5034
      2 C          64.6304   91.1526   13.5845 C.ar    1  UNL1        0.1611
      3 C          64.9967   90.1657   14.6530 C.ar    1  UNL1        0.0390
      4 C          64.5665   88.7339   14.5308 C.ar    1  UNL1        0.0033
      5 C          63.7700   88.2891   13.3402 C.ar    1  UNL1        0.0032
      6 C          63.3398   86.8573   13.2180 C.ar    1  UNL1        0.0001
      7 C          62.5433   86.4125   12.0274 C.ar    1  UNL1        0.0009
      8 C          62.1770   87.3995   10.9588 C.ar    1  UNL1        0.0122
      9 C          62.6072   88.8312   11.0810 C.ar    1  UNL1        0.0599
     10 CL         62.2408   89.8182   10.0125 Cl      1  UNL1       -0.0822
     11 C          63.4037   89.2760   12.2717 C.ar    1  UNL1        0.0411
     12 C          63.8339   90.7078   12.3939 C.ar    1  UNL1        0.1743
     13 F          63.4675   91.6948   11.3254 F       1  UNL1       -0.2010
     14 H          65.5582   92.8623   14.4505 H       1  UNL1        0.2923
     15 C          61.3804   86.9546    9.7682 C.ar    1  UNL1        0.0200
     16 C          62.0062   86.0612    8.7385 C.ar    1  UNL1        0.0032
     17 C          61.2097   85.6163    7.5478 C.ar    1  UNL1        0.0207
     18 C          59.7874   86.0650    7.3868 C.ar    1  UNL1        0.0989
     19 N          59.1617   86.9584    8.4165 N.ar    1  UNL1       -0.2423
     20 C          59.9582   87.4033    9.6072 C.ar    1  UNL1        0.0989
@<TRIPOS>BOND
     1     1     2    1
     2     2     3   ar
     3     3     4   ar
     4     4     5   ar
     5     5     6   ar
     6     6     7   ar
     7     7     8   ar
     8     8    15    1
     9    15    16   ar
    10    16    17   ar
    11    17    18   ar
    12    18    19   ar
    13    19    20   ar
    14     8     9   ar
    15     9    10    1
    16     9    11   ar
    17    11    12   ar
    18    12    13    1
    19    12     2   ar
    20    11     5   ar
    21    20    15   ar
    22     1    14    1
@<TRIPOS>MOLECULE
*****
 20 22 0 0 0
SMALL
GASTEIGER

@<TRIPOS>ATOM
      1 O          63.9614   80.4132   14.5135 O.3     1  UNL1       -0.5034
      2 C          63.5415   81.5383   13.6146 C.ar    1  UNL1        0.1611
      3 C          62.8491   81.2431   12.3171 C.ar    1  UNL1        0.0390
      4 C          62.4292   82.3682   11.4182 C.ar    1  UNL1        0.0033
      5 C          62.7016   83.7883   11.8168 C.ar    1  UNL1        0.0032
      6 C          62.2817   84.9133   10.9179 C.ar    1  UNL1        0.0001
      7 C          62.5542   86.3335   11.3165 C.ar    1  UNL1        0.0009
      8 C          63.2466   86.6287   12.6140 C.ar    1  UNL1        0.0122
      9 C          63.6665   85.5036   13.5129 C.ar    1  UNL1        0.0599
     10 CL         64.3589   85.7988   14.8104 Cl      1  UNL1       -0.0822
     11 C          63.3940   84.0834   13.1143 C.ar    1  UNL1        0.0411
     12 C          63.8139   82.9584   14.0132 C.ar    1  UNL1        0.1743
     13 F          64.5064   83.2536   15.3107 F       1  UNL1       -0.2010
     14 H          63.7912   79.5261   14.2645 H       1  UNL1        0.2923
     15 C          63.5191   88.0488   13.0126 C.ar    1  UNL1        0.0200
     16 C          64.2880   88.3414   14.2669 C.ar    1  UNL1        0.0032
     17 C          64.5605   89.7616   14.6654 C.ar    1  UNL1        0.0207
     18 C          64.0641   90.8891   13.8098 C.ar    1  UNL1        0.0989
     19 N          63.2952   90.5966   12.5555 N.ar    1  UNL1       -0.2423
     20 C          63.0226   89.1764   12.1569 C.ar    1  UNL1        0.0989
@<TRIPOS>BOND
     1     1     2    1
     2     2     3   ar
     3     3     4   ar
     4     4     5   ar
     5     5     6   ar
     6     6     7   ar
     7     7     8   ar
     8     8    15    1
     9    15    16   ar
    10    16    17   ar
    11    17    18   ar
    12    18    19   ar
    13    19    20   ar
    14     8     9   ar
    15     9    10    1
    16     9    11   ar
    17    11    12   ar
    18    12    13    1
    19    12     2   ar
    20    11     5   ar
    21    20    15   ar
    22     1    14    1
