@<TRIPOS>MOLECULE
*****
 33 35 0 0 0
SMALL
GASTEIGER

@<TRIPOS>ATOM
      1 C          62.7634   87.6216   11.8666 C.ar    1  UNL1       -0.0063
      2 C          63.5818   87.6532   13.1233 C.ar    1  UNL1       -0.0001
      3 C          64.1143   88.9573   13.6389 C.ar    1  UNL1        0.0372
      4 C          63.8285   90.2297   12.8978 C.ar    1  UNL1        0.1454
      5 C          63.0101   90.1981   11.6411 C.ar    1  UNL1        0.0372
      6 C          62.4776   88.8941   11.1255 C.ar    1  UNL1       -0.0001
      7 C          62.2309   86.3176   11.3510 C.3     1  UNL1        0.1354
      8 C          62.5682   85.0379   12.0571 C.3     1  UNL1        0.2618
      9 O          62.2789   84.7212   13.4944 O.3     1  UNL1       -0.4273
     10 C          62.7860   83.3378   13.7755 C.2     1  UNL1        0.4079
     11 O          62.7046   82.6190   15.0896 O.2     1  UNL1       -0.2260
     12 N          63.3888   82.7995   12.5119 N.am    1  UNL1       -0.2180
     13 C          63.2542   83.8502   11.4499 C.2     1  UNL1        0.2724
     14 O          63.7233   83.7336   10.0299 O.2     1  UNL1       -0.2707
     15 H          63.8005   81.9123   12.3994 H       1  UNL1        0.1610
     16 C          59.6211   86.2445    7.6858 C.3     1  UNL1        0.0900
     17 C          60.4910   86.2688    8.9075 C.1     1  UNL1       -0.0896
     18 C          61.3609   86.2932   10.1293 C.1     1  UNL1       -0.0833
     19 O          64.3611   91.5338   13.4134 O.3     1  UNL1       -0.4504
     20 C          65.0902   92.4639   12.4898 C.ar    1  UNL1        0.1791
     21 C          64.9762   92.2879   11.0045 C.ar    1  UNL1        0.0406
     22 C          65.7054   93.2181   10.0809 C.ar    1  UNL1        0.0072
     23 C          66.5486   94.3242   10.6425 C.ar    1  UNL1        0.0746
     24 C          66.6626   94.5002   12.1278 C.ar    1  UNL1        0.0441
     25 C          65.9335   93.5701   13.0514 C.ar    1  UNL1        0.1785
     26 C          67.2778   95.2544    9.7189 C.3     1  UNL1        0.4187
     27 F          68.0070   96.1845    8.7952 F       1  UNL1       -0.1659
     28 F          66.9623   96.4047   10.6283 F       1  UNL1       -0.1659
     29 F          67.5933   94.1040    8.8095 F       1  UNL1       -0.1659
     30 O          66.0475   93.7461   14.5367 O.3     1  UNL1       -0.4205
     31 C          67.1106   93.0127   15.2994 C.3     1  UNL1        0.5087
     32 F          67.1921   91.5169   15.2225 F       1  UNL1       -0.1550
     33 F          68.0922   93.7751   16.1391 F       1  UNL1       -0.1550
@<TRIPOS>BOND
     1    16    17    1
     2    17    18    3
     3     7    18    1
     4     7     1    1
     5     1     2   ar
     6     2     3   ar
     7     3     4   ar
     8     4    19    1
     9    19    20    1
    10    20    21   ar
    11    21    22   ar
    12    22    23   ar
    13    23    26    1
    14    26    27    1
    15    26    28    1
    16    26    29    1
    17    23    24   ar
    18    24    25   ar
    19    25    30    1
    20    30    31    1
    21    31    32    1
    22    31    33    1
    23     4     5   ar
    24     5     6   ar
    25     7     8    1
    26     8     9    1
    27     9    10    1
    28    10    11    2
    29    10    12   am
    30    12    13   am
    31    13    14    2
    32     6     1   ar
    33    13     8    1
    34    25    20   ar
    35    12    15    1
@<TRIPOS>MOLECULE
*****
 33 35 0 0 0
SMALL
GASTEIGER

@<TRIPOS>ATOM
      1 C          62.7337   86.6191   10.7033 C.ar    1  UNL1       -0.0063
      2 C          63.1952   86.8897   12.1046 C.ar    1  UNL1       -0.0001
      3 C          63.2180   88.2950   12.6285 C.ar    1  UNL1        0.0372
      4 C          62.7792   89.4297   11.7511 C.ar    1  UNL1        0.1454
      5 C          62.3176   89.1591   10.3498 C.ar    1  UNL1        0.0372
      6 C          62.2949   87.7538    9.8259 C.ar    1  UNL1       -0.0001
      7 C          62.7109   85.2137   10.1794 C.3     1  UNL1        0.1354
      8 C          62.8630   84.0585   11.1241 C.3     1  UNL1        0.2618
      9 O          62.0807   83.8422   12.3855 O.3     1  UNL1       -0.4273
     10 C          62.5584   82.5668   13.0143 C.2     1  UNL1        0.4079
     11 O          62.0481   81.9685   14.2916 O.2     1  UNL1       -0.2260
     12 N          63.6360   81.9950   12.1415 N.am    1  UNL1       -0.2180
     13 C          63.8243   82.9169   10.9733 C.2     1  UNL1        0.2724
     14 O          64.8021   82.7300    9.8513 O.2     1  UNL1       -0.2707
     15 H          64.1325   81.1610   12.3064 H       1  UNL1        0.1610
     16 C          62.1861   84.4631    5.7736 C.3     1  UNL1        0.0900
     17 C          62.3610   84.7133    7.2422 C.1     1  UNL1       -0.0896
     18 C          62.5360   84.9635    8.7108 C.1     1  UNL1       -0.0833
     19 O          62.8020   90.8351   12.2750 O.3     1  UNL1       -0.4504
     20 C          64.0101   91.3444   13.0036 C.ar    1  UNL1        0.1791
     21 C          65.0665   92.1086   12.2619 C.ar    1  UNL1        0.0406
     22 C          66.2747   92.6179   12.9906 C.ar    1  UNL1        0.0072
     23 C          66.4265   92.3630   14.4610 C.ar    1  UNL1        0.0746
     24 C          65.3701   91.5988   15.2027 C.ar    1  UNL1        0.0441
     25 C          64.1619   91.0895   14.4741 C.ar    1  UNL1        0.1785
     26 C          67.6346   92.8723   15.1896 C.3     1  UNL1        0.4187
     27 F          68.8428   93.3816   15.9183 F       1  UNL1       -0.1659
     28 F          67.9732   91.4719   15.6070 F       1  UNL1       -0.1659
     29 F          67.2960   94.2727   14.7723 F       1  UNL1       -0.1659
     30 O          63.1056   90.3254   15.2158 O.3     1  UNL1       -0.4205
     31 C          63.4869   89.1462   16.0607 C.3     1  UNL1        0.5087
     32 F          63.1748   89.1425   17.5279 F       1  UNL1       -0.1550
     33 F          64.1803   87.9706   15.4385 F       1  UNL1       -0.1550
@<TRIPOS>BOND
     1    16    17    1
     2    17    18    3
     3     7    18    1
     4     7     1    1
     5     1     2   ar
     6     2     3   ar
     7     3     4   ar
     8     4    19    1
     9    19    20    1
    10    20    21   ar
    11    21    22   ar
    12    22    23   ar
    13    23    26    1
    14    26    27    1
    15    26    28    1
    16    26    29    1
    17    23    24   ar
    18    24    25   ar
    19    25    30    1
    20    30    31    1
    21    31    32    1
    22    31    33    1
    23     4     5   ar
    24     5     6   ar
    25     7     8    1
    26     8     9    1
    27     9    10    1
    28    10    11    2
    29    10    12   am
    30    12    13   am
    31    13    14    2
    32     6     1   ar
    33    13     8    1
    34    25    20   ar
    35    12    15    1
@<TRIPOS>MOLECULE
*****
 33 35 0 0 0
SMALL
GASTEIGER

@<TRIPOS>ATOM
      1 C          62.5016   88.1269   11.2023 C.ar    1  UNL1       -0.0063
      2 C          62.3771   89.3008   10.2769 C.ar    1  UNL1       -0.0001
      3 C          62.9256   90.6368   10.6823 C.ar    1  UNL1        0.0372
      4 C          63.5986   90.7988   12.0130 C.ar    1  UNL1        0.1454
      5 C          63.7231   89.6249   12.9383 C.ar    1  UNL1        0.0372
      6 C          63.1746   88.2889   12.5330 C.ar    1  UNL1       -0.0001
      7 C          61.9531   86.7909   10.7969 C.3     1  UNL1        0.1354
      8 C          62.4168   85.5467   11.4948 C.3     1  UNL1        0.2618
      9 O          62.2582   85.2439   12.9553 O.3     1  UNL1       -0.4273
     10 C          62.8639   83.8970   13.2180 C.2     1  UNL1        0.4079
     11 O          62.9258   83.2017   14.5457 O.2     1  UNL1       -0.2260
     12 N          63.3969   83.3674   11.9197 N.am    1  UNL1       -0.2180
     13 C          63.1206   84.3870   10.8548 C.2     1  UNL1        0.2724
     14 O          63.4842   84.2677    9.4044 O.2     1  UNL1       -0.2707
     15 H          63.8488   82.5024   11.7894 H       1  UNL1        0.1610
     16 C          58.9166   86.5153    7.4873 C.3     1  UNL1        0.0900
     17 C          59.9288   86.6071    8.5905 C.1     1  UNL1       -0.0896
     18 C          60.9410   86.6990    9.6937 C.1     1  UNL1       -0.0833
     19 O          64.1471   92.1349   12.4183 O.3     1  UNL1       -0.4504
     20 C          65.3431   92.2123   13.3202 C.ar    1  UNL1        0.1791
     21 C          65.1664   92.1396   14.8080 C.ar    1  UNL1        0.0406
     22 C          66.3625   92.2170   15.7100 C.ar    1  UNL1        0.0072
     23 C          67.7352   92.3671   15.1241 C.ar    1  UNL1        0.0746
     24 C          67.9118   92.4399   13.6363 C.ar    1  UNL1        0.0441
     25 C          66.7158   92.3624   12.7344 C.ar    1  UNL1        0.1785
     26 C          68.9312   92.4446   16.0261 C.3     1  UNL1        0.4187
     27 F          70.1272   92.5220   16.9281 F       1  UNL1       -0.1659
     28 F          69.7622   92.9432   14.8812 F       1  UNL1       -0.1659
     29 F          68.1001   91.9459   17.1709 F       1  UNL1       -0.1659
     30 O          66.8924   92.4351   11.2466 O.3     1  UNL1       -0.4205
     31 C          66.6551   93.7288   10.5255 C.3     1  UNL1        0.5087
     32 F          65.4208   94.5316   10.8119 F       1  UNL1       -0.1550
     33 F          67.6521   94.2197    9.5180 F       1  UNL1       -0.1550
@<TRIPOS>BOND
     1    16    17    1
     2    17    18    3
     3     7    18    1
     4     7     1    1
     5     1     2   ar
     6     2     3   ar
     7     3     4   ar
     8     4    19    1
     9    19    20    1
    10    20    21   ar
    11    21    22   ar
    12    22    23   ar
    13    23    26    1
    14    26    27    1
    15    26    28    1
    16    26    29    1
    17    23    24   ar
    18    24    25   ar
    19    25    30    1
    20    30    31    1
    21    31    32    1
    22    31    33    1
    23     4     5   ar
    24     5     6   ar
    25     7     8    1
    26     8     9    1
    27     9    10    1
    28    10    11    2
    29    10    12   am
    30    12    13   am
    31    13    14    2
    32     6     1   ar
    33    13     8    1
    34    25    20   ar
    35    12    15    1
@<TRIPOS>MOLECULE
*****
 33 35 0 0 0
SMALL
GASTEIGER

@<TRIPOS>ATOM
      1 C          62.4949   87.3049   10.7509 C.ar    1  UNL1       -0.0063
      2 C          62.2724   88.4591    9.8192 C.ar    1  UNL1       -0.0001
      3 C          62.5817   89.8563   10.2688 C.ar    1  UNL1        0.0372
      4 C          63.1136   90.0992   11.6501 C.ar    1  UNL1        0.1454
      5 C          63.3362   88.9450   12.5818 C.ar    1  UNL1        0.0372
      6 C          63.0269   87.5478   12.1322 C.ar    1  UNL1       -0.0001
      7 C          62.1856   85.9076   10.3013 C.3     1  UNL1        0.1354
      8 C          61.6945   85.6602    8.9057 C.3     1  UNL1        0.2618
      9 O          62.4316   84.9188    7.8301 O.3     1  UNL1       -0.4273
     10 C          61.5728   84.9112    6.6003 C.2     1  UNL1        0.4079
     11 O          61.9208   84.2780    5.2858 O.2     1  UNL1       -0.2260
     12 N          60.3049   85.6479    6.9159 N.am    1  UNL1       -0.2180
     13 C          60.3801   86.1109    8.3407 C.2     1  UNL1        0.2724
     14 O          59.3260   86.8880    9.0720 O.2     1  UNL1       -0.2707
     15 H          59.5550   85.8008    6.2966 H       1  UNL1        0.1610
     16 C          62.7309   82.4582   13.1393 C.3     1  UNL1        0.0900
     17 C          62.5491   83.6080   12.1933 C.1     1  UNL1       -0.0896
     18 C          62.3673   84.7578   11.2473 C.1     1  UNL1       -0.0833
     19 O          63.4230   91.4965   12.0997 O.3     1  UNL1       -0.4504
     20 C          64.6155   91.7571   12.9713 C.ar    1  UNL1        0.1791
     21 C          64.5472   91.4687   14.4418 C.ar    1  UNL1        0.0406
     22 C          65.7398   91.7294   15.3134 C.ar    1  UNL1        0.0072
     23 C          67.0007   92.2785   14.7147 C.ar    1  UNL1        0.0746
     24 C          67.0691   92.5670   13.2442 C.ar    1  UNL1        0.0441
     25 C          65.8765   92.3063   12.3726 C.ar    1  UNL1        0.1785
     26 C          68.1933   92.5392   15.5863 C.3     1  UNL1        0.4187
     27 F          69.3859   92.7999   16.4580 F       1  UNL1       -0.1659
     28 F          67.2963   92.6356   16.7847 F       1  UNL1       -0.1659
     29 F          69.0902   92.4428   14.3880 F       1  UNL1       -0.1659
     30 O          65.9449   92.5947   10.9022 O.3     1  UNL1       -0.4205
     31 C          67.2763   92.7573   10.2309 C.3     1  UNL1        0.5087
     32 F          67.5663   93.9914    9.4290 F       1  UNL1       -0.1550
     33 F          68.3178   91.6858   10.3614 F       1  UNL1       -0.1550
@<TRIPOS>BOND
     1    16    17    1
     2    17    18    3
     3     7    18    1
     4     7     1    1
     5     1     2   ar
     6     2     3   ar
     7     3     4   ar
     8     4    19    1
     9    19    20    1
    10    20    21   ar
    11    21    22   ar
    12    22    23   ar
    13    23    26    1
    14    26    27    1
    15    26    28    1
    16    26    29    1
    17    23    24   ar
    18    24    25   ar
    19    25    30    1
    20    30    31    1
    21    31    32    1
    22    31    33    1
    23     4     5   ar
    24     5     6   ar
    25     7     8    1
    26     8     9    1
    27     9    10    1
    28    10    11    2
    29    10    12   am
    30    12    13   am
    31    13    14    2
    32     6     1   ar
    33    13     8    1
    34    25    20   ar
    35    12    15    1
@<TRIPOS>MOLECULE
*****
 33 35 0 0 0
SMALL
GASTEIGER

@<TRIPOS>ATOM
      1 C          62.8324   87.1305   12.0309 C.ar    1  UNL1       -0.0063
      2 C          62.5778   88.4994   11.4733 C.ar    1  UNL1       -0.0001
      3 C          63.1401   89.7068   12.1633 C.ar    1  UNL1        0.0372
      4 C          63.9570   89.5452   13.4109 C.ar    1  UNL1        0.1454
      5 C          64.2116   88.1762   13.9685 C.ar    1  UNL1        0.0372
      6 C          63.6493   86.9689   13.2786 C.ar    1  UNL1       -0.0001
      7 C          62.2701   85.9230   11.3410 C.3     1  UNL1        0.1354
      8 C          61.5147   86.0783   10.0544 C.3     1  UNL1        0.2618
      9 O          60.1440   86.6683    9.9024 O.3     1  UNL1       -0.4273
     10 C          59.7795   86.6254    8.4480 C.2     1  UNL1        0.4079
     11 O          58.4951   87.1134    7.8462 O.2     1  UNL1       -0.2260
     12 N          60.9250   86.0089    7.7011 N.am    1  UNL1       -0.2180
     13 C          61.9974   85.6708    8.6939 C.2     1  UNL1        0.2724
     14 O          63.3202   85.0365    8.3810 O.2     1  UNL1       -0.2707
     15 H          60.9657   85.8535    6.7298 H       1  UNL1        0.1610
     16 C          62.8496   81.8351   13.1307 C.3     1  UNL1        0.0900
     17 C          62.6564   83.1977   12.5341 C.1     1  UNL1       -0.0896
     18 C          62.4633   84.5604   11.9376 C.1     1  UNL1       -0.0833
     19 O          64.5192   90.7526   14.1009 O.3     1  UNL1       -0.4504
     20 C          65.0753   91.8873   13.2926 C.ar    1  UNL1        0.1791
     21 C          64.7939   91.9687   11.8215 C.ar    1  UNL1        0.0406
     22 C          65.3501   93.1035   11.0132 C.ar    1  UNL1        0.0072
     23 C          66.1875   94.1567   11.6761 C.ar    1  UNL1        0.0746
     24 C          66.4689   94.0752   13.1472 C.ar    1  UNL1        0.0441
     25 C          65.9128   92.9405   13.9555 C.ar    1  UNL1        0.1785
     26 C          66.7436   95.2913   10.8679 C.3     1  UNL1        0.4187
     27 F          67.2997   96.4260   10.0596 F       1  UNL1       -0.1659
     28 F          65.9687   96.2664   11.7037 F       1  UNL1       -0.1659
     29 F          67.5184   94.3162   10.0321 F       1  UNL1       -0.1659
     30 O          66.1942   92.8591   15.4266 O.3     1  UNL1       -0.4205
     31 C          67.5998   93.0015   15.9304 C.3     1  UNL1        0.5087
     32 F          68.2716   94.3425   15.9099 F       1  UNL1       -0.1550
     33 F          68.3337   91.8029   16.4546 F       1  UNL1       -0.1550
@<TRIPOS>BOND
     1    16    17    1
     2    17    18    3
     3     7    18    1
     4     7     1    1
     5     1     2   ar
     6     2     3   ar
     7     3     4   ar
     8     4    19    1
     9    19    20    1
    10    20    21   ar
    11    21    22   ar
    12    22    23   ar
    13    23    26    1
    14    26    27    1
    15    26    28    1
    16    26    29    1
    17    23    24   ar
    18    24    25   ar
    19    25    30    1
    20    30    31    1
    21    31    32    1
    22    31    33    1
    23     4     5   ar
    24     5     6   ar
    25     7     8    1
    26     8     9    1
    27     9    10    1
    28    10    11    2
    29    10    12   am
    30    12    13   am
    31    13    14    2
    32     6     1   ar
    33    13     8    1
    34    25    20   ar
    35    12    15    1
@<TRIPOS>MOLECULE
*****
 33 35 0 0 0
SMALL
GASTEIGER

@<TRIPOS>ATOM
      1 C          62.7551   86.7345   10.8419 C.ar    1  UNL1       -0.0063
      2 C          63.2535   87.0162   12.2283 C.ar    1  UNL1       -0.0001
      3 C          63.3189   88.4286   12.7292 C.ar    1  UNL1        0.0372
      4 C          62.8860   89.5592   11.8436 C.ar    1  UNL1        0.1454
      5 C          62.3875   89.2775   10.4572 C.ar    1  UNL1        0.0372
      6 C          62.3221   87.8651    9.9564 C.ar    1  UNL1       -0.0001
      7 C          62.6896   85.3221   10.3410 C.3     1  UNL1        0.1354
      8 C          62.8448   84.1785   11.2993 C.3     1  UNL1        0.2618
      9 O          62.0925   83.9965   12.5841 O.3     1  UNL1       -0.4273
     10 C          62.5624   82.7217   13.2199 C.2     1  UNL1        0.4079
     11 O          62.0751   82.1528   14.5194 O.2     1  UNL1       -0.2260
     12 N          63.6051   82.1158   12.3279 N.am    1  UNL1       -0.2180
     13 C          63.7796   83.0162   11.1409 C.2     1  UNL1        0.2724
     14 O          64.7234   82.7933    9.9965 O.2     1  UNL1       -0.2707
     15 H          64.0898   81.2749   12.4926 H       1  UNL1        0.1610
     16 C          62.0274   84.5156    5.9637 C.3     1  UNL1        0.0900
     17 C          62.2482   84.7844    7.4228 C.1     1  UNL1       -0.0896
     18 C          62.4689   85.0532    8.8819 C.1     1  UNL1       -0.0833
     19 O          62.9514   90.9717   12.3445 O.3     1  UNL1       -0.4504
     20 C          64.1539   91.4416   13.1082 C.ar    1  UNL1        0.1791
     21 C          64.2309   91.2290   14.5910 C.ar    1  UNL1        0.0406
     22 C          65.4335   91.6990   15.3546 C.ar    1  UNL1        0.0072
     23 C          66.5589   92.3816   14.6354 C.ar    1  UNL1        0.0746
     24 C          66.4819   92.5943   13.1526 C.ar    1  UNL1        0.0441
     25 C          65.2794   92.1243   12.3889 C.ar    1  UNL1        0.1785
     26 C          67.7614   92.8516   15.3990 C.3     1  UNL1        0.4187
     27 F          68.9639   93.3215   16.1627 F       1  UNL1       -0.1659
     28 F          67.4224   94.2724   15.0583 F       1  UNL1       -0.1659
     29 F          68.1003   91.4307   15.7398 F       1  UNL1       -0.1659
     30 O          65.2024   92.3370   10.9061 O.3     1  UNL1       -0.4205
     31 C          66.2010   93.2233   10.2227 C.3     1  UNL1        0.5087
     32 F          65.9839   94.7070   10.1834 F       1  UNL1       -0.1550
     33 F          67.4168   92.6260    9.5785 F       1  UNL1       -0.1550
@<TRIPOS>BOND
     1    16    17    1
     2    17    18    3
     3     7    18    1
     4     7     1    1
     5     1     2   ar
     6     2     3   ar
     7     3     4   ar
     8     4    19    1
     9    19    20    1
    10    20    21   ar
    11    21    22   ar
    12    22    23   ar
    13    23    26    1
    14    26    27    1
    15    26    28    1
    16    26    29    1
    17    23    24   ar
    18    24    25   ar
    19    25    30    1
    20    30    31    1
    21    31    32    1
    22    31    33    1
    23     4     5   ar
    24     5     6   ar
    25     7     8    1
    26     8     9    1
    27     9    10    1
    28    10    11    2
    29    10    12   am
    30    12    13   am
    31    13    14    2
    32     6     1   ar
    33    13     8    1
    34    25    20   ar
    35    12    15    1
@<TRIPOS>MOLECULE
*****
 33 35 0 0 0
SMALL
GASTEIGER

@<TRIPOS>ATOM
      1 C          63.2703   86.9240   12.6883 C.ar    1  UNL1       -0.0063
      2 C          64.0139   87.1818   13.9652 C.ar    1  UNL1       -0.0001
      3 C          64.1224   88.5787   14.5009 C.ar    1  UNL1        0.0372
      4 C          63.4874   89.7177   13.7596 C.ar    1  UNL1        0.1454
      5 C          62.7438   89.4598   12.4827 C.ar    1  UNL1        0.0372
      6 C          62.6353   88.0629   11.9470 C.ar    1  UNL1       -0.0001
      7 C          63.1617   85.5270   12.1526 C.3     1  UNL1        0.1354
      8 C          63.1843   84.3591   13.0935 C.3     1  UNL1        0.2618
      9 O          63.9431   83.0806   12.8940 O.3     1  UNL1       -0.4273
     10 C          63.6798   82.1959   14.0764 C.2     1  UNL1        0.4079
     11 O          64.2397   80.8210   14.2908 O.2     1  UNL1       -0.2260
     12 N          62.7583   82.9276   15.0067 N.am    1  UNL1       -0.2180
     13 C          62.4521   84.2645   14.3993 C.2     1  UNL1        0.2724
     14 O          61.5687   85.3213   14.9933 O.2     1  UNL1       -0.2707
     15 H          62.4148   82.5897   15.8652 H       1  UNL1        0.1610
     16 C          62.7682   84.8403    7.7228 C.3     1  UNL1        0.0900
     17 C          62.8994   85.0692    9.1994 C.1     1  UNL1       -0.0896
     18 C          63.0305   85.2981   10.6760 C.1     1  UNL1       -0.0833
     19 O          63.5960   91.1146   14.2953 O.3     1  UNL1       -0.4504
     20 C          64.9454   91.7123   14.5633 C.ar    1  UNL1        0.1791
     21 C          65.4274   91.8734   15.9746 C.ar    1  UNL1        0.0406
     22 C          66.7769   92.4711   16.2426 C.ar    1  UNL1        0.0072
     23 C          67.6442   92.9077   15.0993 C.ar    1  UNL1        0.0746
     24 C          67.1622   92.7465   13.6881 C.ar    1  UNL1        0.0441
     25 C          65.8128   92.1488   13.4200 C.ar    1  UNL1        0.1785
     26 C          68.9936   93.5054   15.3673 C.3     1  UNL1        0.4187
     27 F          70.3431   94.1031   15.6353 F       1  UNL1       -0.1659
     28 F          68.3643   94.5181   16.2774 F       1  UNL1       -0.1659
     29 F          69.6230   92.4926   14.4573 F       1  UNL1       -0.1659
     30 O          65.3308   91.9877   12.0088 O.3     1  UNL1       -0.4205
     31 C          66.1788   92.4652   10.8674 C.3     1  UNL1        0.5087
     32 F          65.6076   93.4112    9.8531 F       1  UNL1       -0.1550
     33 F          67.5981   91.9968   10.7404 F       1  UNL1       -0.1550
@<TRIPOS>BOND
     1    16    17    1
     2    17    18    3
     3     7    18    1
     4     7     1    1
     5     1     2   ar
     6     2     3   ar
     7     3     4   ar
     8     4    19    1
     9    19    20    1
    10    20    21   ar
    11    21    22   ar
    12    22    23   ar
    13    23    26    1
    14    26    27    1
    15    26    28    1
    16    26    29    1
    17    23    24   ar
    18    24    25   ar
    19    25    30    1
    20    30    31    1
    21    31    32    1
    22    31    33    1
    23     4     5   ar
    24     5     6   ar
    25     7     8    1
    26     8     9    1
    27     9    10    1
    28    10    11    2
    29    10    12   am
    30    12    13   am
    31    13    14    2
    32     6     1   ar
    33    13     8    1
    34    25    20   ar
    35    12    15    1
@<TRIPOS>MOLECULE
*****
 33 35 0 0 0
SMALL
GASTEIGER

@<TRIPOS>ATOM
      1 C          60.7844   88.9012    9.4942 C.ar    1  UNL1       -0.0063
      2 C          60.0777   90.0269   10.1892 C.ar    1  UNL1       -0.0001
      3 C          60.5133   90.4533   11.5598 C.ar    1  UNL1        0.0372
      4 C          61.6555   89.7540   12.2352 C.ar    1  UNL1        0.1454
      5 C          62.3622   88.6282   11.5402 C.ar    1  UNL1        0.0372
      6 C          61.9266   88.2018   10.1696 C.ar    1  UNL1       -0.0001
      7 C          60.3489   88.4747    8.1235 C.3     1  UNL1        0.1354
      8 C          60.5619   87.0591    7.6755 C.3     1  UNL1        0.2618
      9 O          61.8848   86.4189    7.3754 O.3     1  UNL1       -0.4273
     10 C          61.6300   84.9993    6.9634 C.2     1  UNL1        0.4079
     11 O          62.6725   83.9934    6.5742 O.2     1  UNL1       -0.2260
     12 N          60.1495   84.7621    7.0088 N.am    1  UNL1       -0.2180
     13 C          59.4895   86.0351    7.4489 C.2     1  UNL1        0.2724
     14 O          58.0157   86.2470    7.6306 O.2     1  UNL1       -0.2707
     15 H          59.6915   83.9189    6.7885 H       1  UNL1        0.1610
     16 C          58.4033   91.4420    5.3559 C.3     1  UNL1        0.0900
     17 C          59.0518   90.4529    6.2785 C.1     1  UNL1       -0.0896
     18 C          59.7004   89.4638    7.2010 C.1     1  UNL1       -0.0833
     19 O          62.0910   90.1805   13.6059 O.3     1  UNL1       -0.4504
     20 C          63.4491   90.7847   13.8072 C.ar    1  UNL1        0.1791
     21 C          64.1899   91.3697   12.6415 C.ar    1  UNL1        0.0406
     22 C          65.5481   91.9739   12.8428 C.ar    1  UNL1        0.0072
     23 C          66.1652   91.9932   14.2098 C.ar    1  UNL1        0.0746
     24 C          65.4243   91.4081   15.3755 C.ar    1  UNL1        0.0441
     25 C          64.0663   90.8039   15.1742 C.ar    1  UNL1        0.1785
     26 C          67.5233   92.5974   14.4111 C.3     1  UNL1        0.4187
     27 F          68.8814   93.2017   14.6124 F       1  UNL1       -0.1659
     28 F          68.0792   91.7039   13.3421 F       1  UNL1       -0.1659
     29 F          66.9673   93.4908   15.4800 F       1  UNL1       -0.1659
     30 O          63.3254   90.2189   16.3399 O.3     1  UNL1       -0.4205
     31 C          63.3869   88.7436   16.6037 C.3     1  UNL1        0.5087
     32 F          63.8223   87.8050   15.5177 F       1  UNL1       -0.1550
     33 F          63.0131   88.2069   17.9536 F       1  UNL1       -0.1550
@<TRIPOS>BOND
     1    16    17    1
     2    17    18    3
     3     7    18    1
     4     7     1    1
     5     1     2   ar
     6     2     3   ar
     7     3     4   ar
     8     4    19    1
     9    19    20    1
    10    20    21   ar
    11    21    22   ar
    12    22    23   ar
    13    23    26    1
    14    26    27    1
    15    26    28    1
    16    26    29    1
    17    23    24   ar
    18    24    25   ar
    19    25    30    1
    20    30    31    1
    21    31    32    1
    22    31    33    1
    23     4     5   ar
    24     5     6   ar
    25     7     8    1
    26     8     9    1
    27     9    10    1
    28    10    11    2
    29    10    12   am
    30    12    13   am
    31    13    14    2
    32     6     1   ar
    33    13     8    1
    34    25    20   ar
    35    12    15    1
@<TRIPOS>MOLECULE
*****
 33 35 0 0 0
SMALL
GASTEIGER

@<TRIPOS>ATOM
      1 C          60.0833   92.0477    3.6109 C.ar    1  UNL1       -0.0063
      2 C          61.0549   91.2663    4.4447 C.ar    1  UNL1       -0.0001
      3 C          60.5696   90.4944    5.6358 C.ar    1  UNL1        0.0372
      4 C          59.1128   90.5040    5.9930 C.ar    1  UNL1        0.1454
      5 C          58.1412   91.2854    5.1592 C.ar    1  UNL1        0.0372
      6 C          58.6265   92.0573    3.9681 C.ar    1  UNL1       -0.0001
      7 C          60.5685   92.8197    2.4197 C.3     1  UNL1        0.1354
      8 C          62.0118   93.2159    2.3200 C.3     1  UNL1        0.2618
      9 O          62.5310   94.6034    2.0849 O.3     1  UNL1       -0.4273
     10 C          64.0293   94.5393    2.0575 C.2     1  UNL1        0.4079
     11 O          64.9578   95.6988    1.8485 O.2     1  UNL1       -0.2260
     12 N          64.4363   93.1122    2.2757 N.am    1  UNL1       -0.2180
     13 C          63.1894   92.2943    2.4380 C.2     1  UNL1        0.2724
     14 O          63.1304   90.8145    2.6764 O.2     1  UNL1       -0.2707
     15 H          65.3596   92.7720    2.3070 H       1  UNL1        0.1610
     16 C          57.6945   93.9466   -0.8544 C.3     1  UNL1        0.0900
     17 C          58.6525   93.5710    0.2370 C.1     1  UNL1       -0.0896
     18 C          59.6105   93.1953    1.3284 C.1     1  UNL1       -0.0833
     19 O          58.6275   89.7320    7.1841 O.3     1  UNL1       -0.4504
     20 C          59.5136   88.7045    7.8237 C.ar    1  UNL1        0.1791
     21 C          59.6392   87.3392    7.2153 C.ar    1  UNL1        0.0406
     22 C          60.5254   86.3117    7.8549 C.ar    1  UNL1        0.0072
     23 C          61.2858   86.6495    9.1029 C.ar    1  UNL1        0.0746
     24 C          61.1602   88.0148    9.7114 C.ar    1  UNL1        0.0441
     25 C          60.2741   89.0423    9.0718 C.ar    1  UNL1        0.1785
     26 C          62.1719   85.6220    9.7425 C.3     1  UNL1        0.4187
     27 F          63.0580   84.5945   10.3821 F       1  UNL1       -0.1659
     28 F          61.2589   85.5750   10.9317 F       1  UNL1       -0.1659
     29 F          63.0848   85.6690    8.5533 F       1  UNL1       -0.1659
     30 O          60.1485   90.4076    9.6802 O.3     1  UNL1       -0.4205
     31 C          59.8072   90.5525   11.1337 C.3     1  UNL1        0.5087
     32 F          58.5787   91.3091   11.5438 F       1  UNL1       -0.1550
     33 F          60.6945   89.9408   12.1769 F       1  UNL1       -0.1550
@<TRIPOS>BOND
     1    16    17    1
     2    17    18    3
     3     7    18    1
     4     7     1    1
     5     1     2   ar
     6     2     3   ar
     7     3     4   ar
     8     4    19    1
     9    19    20    1
    10    20    21   ar
    11    21    22   ar
    12    22    23   ar
    13    23    26    1
    14    26    27    1
    15    26    28    1
    16    26    29    1
    17    23    24   ar
    18    24    25   ar
    19    25    30    1
    20    30    31    1
    21    31    32    1
    22    31    33    1
    23     4     5   ar
    24     5     6   ar
    25     7     8    1
    26     8     9    1
    27     9    10    1
    28    10    11    2
    29    10    12   am
    30    12    13   am
    31    13    14    2
    32     6     1   ar
    33    13     8    1
    34    25    20   ar
    35    12    15    1
