@<TRIPOS>MOLECULE
*****
 51 56 0 0 0
SMALL
GASTEIGER

@<TRIPOS>ATOM
      1 N          61.5427   89.0900    9.7826 N.am    1  UNL1       -0.2738
      2 C          62.0136   89.9884   10.8876 C.2     1  UNL1        0.2490
      3 O          61.1142   91.0689   11.4105 O.2     1  UNL1       -0.2727
      4 C          60.1723   89.2722    9.2004 C.3     1  UNL1        0.0952
      5 C          59.7630   88.4909    7.9871 C.3     1  UNL1        0.0388
      6 C          58.6936   89.0216    7.0789 C.3     1  UNL1        0.0739
      7 C          60.0241   93.2349    3.0196 C.3     1  UNL1        0.0897
      8 N          59.6915   92.1815    4.0344 N.3     1  UNL1       -0.2691
      9 C          58.2725   91.9938    4.4831 C.3     1  UNL1        0.0897
     10 C          57.9399   90.9405    5.4979 C.3     1  UNL1        0.0897
     11 N          59.0262   90.0749    6.0641 N.3     1  UNL1       -0.2703
     12 C          60.4452   90.2626    5.6154 C.3     1  UNL1        0.0897
     13 C          60.7778   91.3160    4.6006 C.3     1  UNL1        0.0897
     14 C          62.4422   88.0095    9.2596 C.3     1  UNL1        0.1202
     15 C          62.4625   86.6643    9.9228 C.ar    1  UNL1       -0.0023
     16 C          62.8775   85.4507    9.1449 C.ar    1  UNL1       -0.0026
     17 C          62.8978   84.1055    9.8081 C.ar    1  UNL1       -0.0003
     18 C          62.5031   83.9737   11.2492 C.ar    1  UNL1       -0.0000
     19 C          62.0880   85.1872   12.0271 C.ar    1  UNL1       -0.0003
     20 C          62.0677   86.5325   11.3639 C.ar    1  UNL1       -0.0026
     21 C          62.5234   82.6285   11.9124 C.ar    1  UNL1        0.0001
     22 C          62.9379   81.4148   11.1343 C.ar    1  UNL1        0.0009
     23 C          62.9582   80.0696   11.7975 C.ar    1  UNL1        0.0114
     24 C          62.5640   79.9379   13.2387 C.ar    1  UNL1        0.0577
     25 CL         62.5842   78.5926   13.9019 Cl      1  UNL1       -0.0822
     26 C          62.1494   81.1514   14.0168 C.ar    1  UNL1        0.0114
     27 C          62.1291   82.4968   13.3536 C.ar    1  UNL1        0.0009
     28 C          63.3840   89.8063   11.4698 C.3     1  UNL1        0.1934
     29 N          63.6847   90.3074   12.8512 N.ar    1  UNL1       -0.2979
     30 C          63.2114   89.5371   14.0481 C.ar    1  UNL1        0.0786
     31 C          63.5121   90.0382   15.4295 C.ar    1  UNL1        0.0574
     32 C          64.2862   91.3098   15.6141 C.ar    1  UNL1        0.2786
     33 O          64.5869   91.8109   16.9955 O.2     1  UNL1       -0.2654
     34 N          64.7596   92.0801   14.4173 N.ar    1  UNL1       -0.1847
     35 C          64.4588   91.5789   13.0358 C.ar    1  UNL1        0.1750
     36 C          63.0387   89.2679   16.6264 C.3     1  UNL1        0.0622
     37 C          63.1074   87.7695   16.6291 C.ar    1  UNL1        0.0220
     38 C          62.3907   86.8557   17.5785 C.ar    1  UNL1        0.1177
     39 N          62.7452   85.4432   17.2190 N.ar    1  UNL1       -0.1679
     40 N          63.6811   85.4841   16.0475 N.ar    1  UNL1       -0.2477
     41 C          64.2868   84.2958   15.3610 C.3     1  UNL1        0.1537
     42 C          63.9049   86.9218   15.6829 C.ar    1  UNL1        0.0927
     43 S          64.9322   92.3492   11.8389 S.3     1  UNL1       -0.0724
     44 C          66.2126   93.1278   11.9065 C.3     1  UNL1        0.0913
     45 C          66.5835   94.0597   10.7911 C.ar    1  UNL1       -0.0108
     46 C          66.1034   95.4806   10.8102 C.ar    1  UNL1       -0.0011
     47 C          66.4742   96.4126    9.6948 C.ar    1  UNL1        0.0293
     48 C          67.3252   95.9236    8.5605 C.ar    1  UNL1        0.1401
     49 F          67.6960   96.8555    7.4452 F       1  UNL1       -0.2042
     50 C          67.8053   94.5026    8.5415 C.ar    1  UNL1        0.0293
     51 C          67.4344   93.5707    9.6568 C.ar    1  UNL1       -0.0011
@<TRIPOS>BOND
     1     7     8    1
     2     8     9    1
     3     9    10    1
     4    10    11    1
     5    11     6    1
     6     6     5    1
     7     5     4    1
     8     4     1    1
     9     1    14    1
    10    14    15    1
    11    15    16   ar
    12    16    17   ar
    13    17    18   ar
    14    18    21    1
    15    21    22   ar
    16    22    23   ar
    17    23    24   ar
    18    24    25    1
    19    24    26   ar
    20    26    27   ar
    21    18    19   ar
    22    19    20   ar
    23     1     2   am
    24     2     3    2
    25     2    28    1
    26    28    29    1
    27    29    30   ar
    28    30    31   ar
    29    31    36    1
    30    36    37    1
    31    37    38   ar
    32    38    39   ar
    33    39    40   ar
    34    40    41    1
    35    40    42   ar
    36    31    32   ar
    37    32    33    2
    38    32    34   ar
    39    34    35   ar
    40    35    43    1
    41    43    44    1
    42    44    45    1
    43    45    46   ar
    44    46    47   ar
    45    47    48   ar
    46    48    49    1
    47    48    50   ar
    48    50    51   ar
    49    11    12    1
    50    12    13    1
    51    13     8    1
    52    20    15   ar
    53    35    29   ar
    54    51    45   ar
    55    27    21   ar
    56    42    37   ar
@<TRIPOS>MOLECULE
*****
 51 56 0 0 0
SMALL
GASTEIGER

@<TRIPOS>ATOM
      1 N          61.5327   89.3243    9.7473 N.am    1  UNL1       -0.2738
      2 C          61.9088   90.0373   11.0122 C.2     1  UNL1        0.2490
      3 O          61.0266   91.1241   11.5513 O.2     1  UNL1       -0.2727
      4 C          60.2744   89.6981    9.0213 C.3     1  UNL1        0.0952
      5 C          59.7841   88.8505    7.8850 C.3     1  UNL1        0.0388
      6 C          58.7330   89.3787    6.9544 C.3     1  UNL1        0.0739
      7 C          60.2200   93.3057    2.6686 C.3     1  UNL1        0.0897
      8 N          59.8483   92.3240    3.7400 N.3     1  UNL1       -0.2691
      9 C          60.9145   91.5209    4.4241 C.3     1  UNL1        0.0897
     10 C          60.5428   90.5391    5.4955 C.3     1  UNL1        0.0897
     11 N          59.1048   90.3605    5.8829 N.3     1  UNL1       -0.2703
     12 C          58.0385   91.1636    5.1989 C.3     1  UNL1        0.0897
     13 C          58.4102   92.1453    4.1274 C.3     1  UNL1        0.0897
     14 C          62.4149   88.2375    9.2082 C.3     1  UNL1        0.1202
     15 C          62.4479   86.8963    9.8792 C.ar    1  UNL1       -0.0023
     16 C          62.9096   85.6885    9.1188 C.ar    1  UNL1       -0.0026
     17 C          62.9426   84.3473    9.7898 C.ar    1  UNL1       -0.0003
     18 C          62.5139   84.2140   11.2210 C.ar    1  UNL1       -0.0000
     19 C          62.0522   85.4217   11.9813 C.ar    1  UNL1       -0.0003
     20 C          62.0192   86.7630   11.3104 C.ar    1  UNL1       -0.0026
     21 C          62.5469   82.8728   11.8919 C.ar    1  UNL1        0.0001
     22 C          62.1995   82.7530   13.3463 C.ar    1  UNL1        0.0009
     23 C          62.2325   81.4118   14.0172 C.ar    1  UNL1        0.0114
     24 C          62.6129   80.1905   13.2339 C.ar    1  UNL1        0.0577
     25 CL         62.6459   78.8493   13.9048 Cl      1  UNL1       -0.0822
     26 C          62.9603   80.3103   11.7796 C.ar    1  UNL1        0.0114
     27 C          62.9273   81.6515   11.1086 C.ar    1  UNL1        0.0009
     28 C          63.1671   89.6634   11.7382 C.3     1  UNL1        0.1934
     29 N          64.0825   90.7345   12.2528 N.ar    1  UNL1       -0.2979
     30 C          65.0282   91.4265   11.3163 C.ar    1  UNL1        0.0786
     31 C          65.9436   92.4975   11.8308 C.ar    1  UNL1        0.0574
     32 C          65.9134   92.8767   13.2819 C.ar    1  UNL1        0.2786
     33 O          66.8288   93.9478   13.7964 O.2     1  UNL1       -0.2654
     34 N          64.9677   92.1848   14.2183 N.ar    1  UNL1       -0.1847
     35 C          64.0522   91.1136   13.7037 C.ar    1  UNL1        0.1750
     36 C          66.8893   93.1895   10.8944 C.3     1  UNL1        0.0622
     37 C          66.4603   94.4381   10.1825 C.ar    1  UNL1        0.0220
     38 C          65.6518   95.5556   10.7720 C.ar    1  UNL1        0.1177
     39 N          65.4564   96.5967    9.7099 N.ar    1  UNL1       -0.1679
     40 N          66.1441   96.1225    8.4640 N.ar    1  UNL1       -0.2477
     41 C          66.2014   96.8540    7.1557 C.3     1  UNL1        0.1537
     42 C          66.7646   94.7884    8.7561 C.ar    1  UNL1        0.0927
     43 S          63.1065   90.4217   14.6401 S.3     1  UNL1       -0.0724
     44 C          63.6381   89.6833   15.8327 C.3     1  UNL1        0.0913
     45 C          63.7103   88.1852   15.8164 C.ar    1  UNL1       -0.0108
     46 C          64.3943   87.4796   14.6832 C.ar    1  UNL1       -0.0011
     47 C          64.4665   85.9814   14.6667 C.ar    1  UNL1        0.0293
     48 C          63.8545   85.1888   15.7836 C.ar    1  UNL1        0.1401
     49 F          63.9267   83.6907   15.7672 F       1  UNL1       -0.2042
     50 C          63.1704   85.8944   16.9168 C.ar    1  UNL1        0.0293
     51 C          63.0983   87.3926   16.9332 C.ar    1  UNL1       -0.0011
@<TRIPOS>BOND
     1     7     8    1
     2     8     9    1
     3     9    10    1
     4    10    11    1
     5    11     6    1
     6     6     5    1
     7     5     4    1
     8     4     1    1
     9     1    14    1
    10    14    15    1
    11    15    16   ar
    12    16    17   ar
    13    17    18   ar
    14    18    21    1
    15    21    22   ar
    16    22    23   ar
    17    23    24   ar
    18    24    25    1
    19    24    26   ar
    20    26    27   ar
    21    18    19   ar
    22    19    20   ar
    23     1     2   am
    24     2     3    2
    25     2    28    1
    26    28    29    1
    27    29    30   ar
    28    30    31   ar
    29    31    36    1
    30    36    37    1
    31    37    38   ar
    32    38    39   ar
    33    39    40   ar
    34    40    41    1
    35    40    42   ar
    36    31    32   ar
    37    32    33    2
    38    32    34   ar
    39    34    35   ar
    40    35    43    1
    41    43    44    1
    42    44    45    1
    43    45    46   ar
    44    46    47   ar
    45    47    48   ar
    46    48    49    1
    47    48    50   ar
    48    50    51   ar
    49    11    12    1
    50    12    13    1
    51    13     8    1
    52    20    15   ar
    53    35    29   ar
    54    51    45   ar
    55    27    21   ar
    56    42    37   ar
@<TRIPOS>MOLECULE
*****
 51 56 0 0 0
SMALL
GASTEIGER

@<TRIPOS>ATOM
      1 N          61.5400   89.2230    9.7945 N.am    1  UNL1       -0.2738
      2 C          61.8935   89.9865   11.0362 C.2     1  UNL1        0.2490
      3 O          60.9587   91.0340   11.5643 O.2     1  UNL1       -0.2727
      4 C          60.2516   89.5070    9.0807 C.3     1  UNL1        0.0952
      5 C          59.7890   88.6004    7.9788 C.3     1  UNL1        0.0388
      6 C          58.7391   89.0671    7.0145 C.3     1  UNL1        0.0739
      7 C          60.0560   93.2848    2.9553 C.3     1  UNL1        0.0897
      8 N          59.7268   92.2304    3.9701 N.3     1  UNL1       -0.2691
      9 C          60.8178   91.3778    4.5468 C.3     1  UNL1        0.0897
     10 C          60.4886   90.3234    5.5616 C.3     1  UNL1        0.0897
     11 N          59.0683   90.1215    5.9997 N.3     1  UNL1       -0.2703
     12 C          57.9773   90.9741    5.4231 C.3     1  UNL1        0.0897
     13 C          58.3065   92.0285    4.4083 C.3     1  UNL1        0.0897
     14 C          62.4748   88.1755    9.2665 C.3     1  UNL1        0.1202
     15 C          62.4932   86.8077    9.8819 C.ar    1  UNL1       -0.0023
     16 C          62.0206   86.6134   11.2922 C.ar    1  UNL1       -0.0026
     17 C          62.0390   85.2456   11.9077 C.ar    1  UNL1       -0.0003
     18 C          62.5300   84.0721   11.1129 C.ar    1  UNL1       -0.0000
     19 C          63.0025   84.2663    9.7026 C.ar    1  UNL1       -0.0003
     20 C          62.9842   85.6341    9.0871 C.ar    1  UNL1       -0.0026
     21 C          62.5484   82.7043   11.7283 C.ar    1  UNL1        0.0001
     22 C          63.0049   81.5249   10.9216 C.ar    1  UNL1        0.0009
     23 C          63.0233   80.1572   11.5370 C.ar    1  UNL1        0.0114
     24 C          62.5852   79.9687   12.9592 C.ar    1  UNL1        0.0577
     25 CL         62.6036   78.6009   13.5746 Cl      1  UNL1       -0.0822
     26 C          62.1287   81.1480   13.7659 C.ar    1  UNL1        0.0114
     27 C          62.1103   82.5158   13.1505 C.ar    1  UNL1        0.0009
     28 C          63.1819   89.7025   11.7500 C.3     1  UNL1        0.1934
     29 N          63.9836   90.8309   12.3279 N.ar    1  UNL1       -0.2979
     30 C          64.4490   91.9499   11.4441 C.ar    1  UNL1        0.0786
     31 C          65.2507   93.0782   12.0220 C.ar    1  UNL1        0.0574
     32 C          65.5871   93.0876   13.4838 C.ar    1  UNL1        0.2786
     33 O          66.3889   94.2159   14.0617 O.2     1  UNL1       -0.2654
     34 N          65.1218   91.9685   14.3676 N.ar    1  UNL1       -0.1847
     35 C          64.3200   90.8402   13.7897 C.ar    1  UNL1        0.1750
     36 C          65.7161   94.1973   11.1381 C.3     1  UNL1        0.0622
     37 C          66.7001   93.9254   10.0392 C.ar    1  UNL1        0.0220
     38 C          66.9845   94.8199    8.8691 C.ar    1  UNL1        0.1177
     39 N          68.0327   94.1587    8.0241 N.ar    1  UNL1       -0.1679
     40 N          68.3961   92.8554    8.6720 N.ar    1  UNL1       -0.2477
     41 C          69.4058   91.8695    8.1636 C.3     1  UNL1        0.1537
     42 C          67.5725   92.7113    9.9173 C.ar    1  UNL1        0.0927
     43 S          63.8546   89.7211   14.6735 S.3     1  UNL1       -0.0724
     44 C          64.7514   88.5466   14.9314 C.3     1  UNL1        0.0913
     45 C          64.1599   87.2172   15.2959 C.ar    1  UNL1       -0.0108
     46 C          63.2106   87.1104   16.4523 C.ar    1  UNL1       -0.0011
     47 C          62.6191   85.7810   16.8168 C.ar    1  UNL1        0.0293
     48 C          62.9769   84.5584   16.0248 C.ar    1  UNL1        0.1401
     49 F          62.3855   83.2290   16.3893 F       1  UNL1       -0.2042
     50 C          63.9263   84.6652   14.8683 C.ar    1  UNL1        0.0293
     51 C          64.5177   85.9946   14.5039 C.ar    1  UNL1       -0.0011
@<TRIPOS>BOND
     1     7     8    1
     2     8     9    1
     3     9    10    1
     4    10    11    1
     5    11     6    1
     6     6     5    1
     7     5     4    1
     8     4     1    1
     9     1    14    1
    10    14    15    1
    11    15    16   ar
    12    16    17   ar
    13    17    18   ar
    14    18    21    1
    15    21    22   ar
    16    22    23   ar
    17    23    24   ar
    18    24    25    1
    19    24    26   ar
    20    26    27   ar
    21    18    19   ar
    22    19    20   ar
    23     1     2   am
    24     2     3    2
    25     2    28    1
    26    28    29    1
    27    29    30   ar
    28    30    31   ar
    29    31    36    1
    30    36    37    1
    31    37    38   ar
    32    38    39   ar
    33    39    40   ar
    34    40    41    1
    35    40    42   ar
    36    31    32   ar
    37    32    33    2
    38    32    34   ar
    39    34    35   ar
    40    35    43    1
    41    43    44    1
    42    44    45    1
    43    45    46   ar
    44    46    47   ar
    45    47    48   ar
    46    48    49    1
    47    48    50   ar
    48    50    51   ar
    49    11    12    1
    50    12    13    1
    51    13     8    1
    52    20    15   ar
    53    35    29   ar
    54    51    45   ar
    55    27    21   ar
    56    42    37   ar
@<TRIPOS>MOLECULE
*****
 51 56 0 0 0
SMALL
GASTEIGER

@<TRIPOS>ATOM
      1 N          61.5116   88.8228    9.8654 N.am    1  UNL1       -0.2738
      2 C          61.9402   89.8085   10.9117 C.2     1  UNL1        0.2490
      3 O          60.9834   90.8613   11.3871 O.2     1  UNL1       -0.2727
      4 C          60.1261   88.8899    9.2945 C.3     1  UNL1        0.0952
      5 C          59.7919   89.9196    8.2562 C.3     1  UNL1        0.0388
      6 C          59.4113   89.4910    6.8701 C.3     1  UNL1        0.0739
      7 C          59.8666   93.3559    2.3034 C.3     1  UNL1        0.0897
      8 N          59.7528   92.3897    3.4451 N.3     1  UNL1       -0.2691
      9 C          60.9823   91.7278    3.9929 C.3     1  UNL1        0.0897
     10 C          60.8684   90.7616    5.1345 C.3     1  UNL1        0.0897
     11 N          59.5251   90.4572    5.7284 N.3     1  UNL1       -0.2703
     12 C          58.2956   91.1192    5.1807 C.3     1  UNL1        0.0897
     13 C          58.4094   92.0854    4.0390 C.3     1  UNL1        0.0897
     14 C          62.4685   87.7700    9.3900 C.3     1  UNL1        0.1202
     15 C          62.4783   86.4175   10.0385 C.ar    1  UNL1       -0.0023
     16 C          62.0615   86.2700   11.4719 C.ar    1  UNL1       -0.0026
     17 C          62.0713   84.9175   12.1204 C.ar    1  UNL1       -0.0003
     18 C          62.4979   83.7125   11.3356 C.ar    1  UNL1       -0.0000
     19 C          62.9147   83.8600    9.9023 C.ar    1  UNL1       -0.0003
     20 C          62.9049   85.2125    9.2537 C.ar    1  UNL1       -0.0026
     21 C          62.5076   82.3600   11.9841 C.ar    1  UNL1        0.0001
     22 C          62.9132   81.1517   11.1929 C.ar    1  UNL1        0.0009
     23 C          62.9230   79.7992   11.8414 C.ar    1  UNL1        0.0114
     24 C          62.5272   79.6548   13.2810 C.ar    1  UNL1        0.0577
     25 CL         62.5370   78.3023   13.9295 Cl      1  UNL1       -0.0822
     26 C          62.1217   80.8630   14.0722 C.ar    1  UNL1        0.0114
     27 C          62.1119   82.2156   13.4237 C.ar    1  UNL1        0.0009
     28 C          63.3257   89.7414   11.4827 C.3     1  UNL1        0.1934
     29 N          63.5876   90.2327   12.8755 N.ar    1  UNL1       -0.2979
     30 C          63.1428   89.4183   14.0540 C.ar    1  UNL1        0.0786
     31 C          63.4047   89.9096   15.4469 C.ar    1  UNL1        0.0574
     32 C          64.1113   91.2153   15.6612 C.ar    1  UNL1        0.2786
     33 O          64.3731   91.7066   17.0541 O.2     1  UNL1       -0.2654
     34 N          64.5560   92.0297   14.4827 N.ar    1  UNL1       -0.1847
     35 C          64.2942   91.5383   13.0898 C.ar    1  UNL1        0.1750
     36 C          62.9599   89.0952   16.6254 C.3     1  UNL1        0.0622
     37 C          63.0788   87.6003   16.5919 C.ar    1  UNL1        0.0220
     38 C          62.3824   86.6397   17.5096 C.ar    1  UNL1        0.1177
     39 N          62.7882   85.2492   17.1197 N.ar    1  UNL1       -0.1679
     40 N          63.7355   85.3506   15.9610 N.ar    1  UNL1       -0.2477
     41 C          64.3885   84.2008   15.2529 C.3     1  UNL1        0.1537
     42 C          63.9150   86.8036   15.6349 C.ar    1  UNL1        0.0927
     43 S          64.7389   92.3527   11.9112 S.3     1  UNL1       -0.0724
     44 C          66.0193   93.1314   11.9779 C.3     1  UNL1        0.0913
     45 C          66.9282   92.9803   13.1615 C.ar    1  UNL1       -0.0108
     46 C          67.9626   91.8941   13.1789 C.ar    1  UNL1       -0.0011
     47 C          68.8716   91.7430   14.3625 C.ar    1  UNL1        0.0293
     48 C          68.7462   92.6780   15.5287 C.ar    1  UNL1        0.1401
     49 F          69.6551   92.5268   16.7123 F       1  UNL1       -0.2042
     50 C          67.7117   93.7641   15.5113 C.ar    1  UNL1        0.0293
     51 C          66.8028   93.9153   14.3277 C.ar    1  UNL1       -0.0011
@<TRIPOS>BOND
     1     7     8    1
     2     8     9    1
     3     9    10    1
     4    10    11    1
     5    11     6    1
     6     6     5    1
     7     5     4    1
     8     4     1    1
     9     1    14    1
    10    14    15    1
    11    15    16   ar
    12    16    17   ar
    13    17    18   ar
    14    18    21    1
    15    21    22   ar
    16    22    23   ar
    17    23    24   ar
    18    24    25    1
    19    24    26   ar
    20    26    27   ar
    21    18    19   ar
    22    19    20   ar
    23     1     2   am
    24     2     3    2
    25     2    28    1
    26    28    29    1
    27    29    30   ar
    28    30    31   ar
    29    31    36    1
    30    36    37    1
    31    37    38   ar
    32    38    39   ar
    33    39    40   ar
    34    40    41    1
    35    40    42   ar
    36    31    32   ar
    37    32    33    2
    38    32    34   ar
    39    34    35   ar
    40    35    43    1
    41    43    44    1
    42    44    45    1
    43    45    46   ar
    44    46    47   ar
    45    47    48   ar
    46    48    49    1
    47    48    50   ar
    48    50    51   ar
    49    11    12    1
    50    12    13    1
    51    13     8    1
    52    20    15   ar
    53    35    29   ar
    54    51    45   ar
    55    27    21   ar
    56    42    37   ar
