@<TRIPOS>MOLECULE
*****
 40 43 0 0 0
SMALL
GASTEIGER

@<TRIPOS>ATOM
      1 C          64.2482   89.5455   13.2310 C.ar    1  UNL1        0.0053
      2 C          64.5141   89.4361   14.7031 C.ar    1  UNL1        0.0033
      3 C          64.3192   88.1250   15.4051 C.ar    1  UNL1        0.0382
      4 C          63.8583   86.9231   14.6349 C.ar    1  UNL1        0.1529
      5 C          63.5924   87.0325   13.1628 C.ar    1  UNL1        0.0882
      6 C          63.7873   88.3436   12.4608 C.ar    1  UNL1        0.0181
      7 N          63.1315   85.8306   12.3926 N.am    1  UNL1       -0.2512
      8 C          62.9366   84.5195   13.0946 C.2     1  UNL1        0.2698
      9 O          62.4757   83.3176   12.3244 O.2     1  UNL1       -0.2704
     10 C          63.2025   84.4101   14.5668 C.3     1  UNL1        0.2197
     11 C          63.3229   83.8111   15.9368 C.3     1  UNL1        0.0579
     12 O          63.6634   85.6119   15.3370 O.3     1  UNL1       -0.4686
     13 C          65.3118   91.9142   13.1429 C.ar    1  UNL1        0.0645
     14 N          65.5068   93.2254   12.4409 N.ar    1  UNL1       -0.2183
     15 C          64.8330   93.4790   11.1249 C.ar    1  UNL1        0.2145
     16 N          65.0280   94.7902   10.4229 N.pl3   1  UNL1       -0.3274
     17 N          63.9644   92.4215   10.5109 N.ar    1  UNL1       -0.1995
     18 C          63.7694   91.1103   11.2130 C.ar    1  UNL1        0.1293
     19 N          62.9007   90.0527   10.5990 N.pl3   1  UNL1       -0.3425
     20 C          64.4431   90.8567   12.5289 C.ar    1  UNL1        0.0449
     21 H          65.5981   95.4843   10.8259 H       1  UNL1        0.1452
     22 H          64.5858   94.9566    9.5592 H       1  UNL1        0.1452
     23 H          62.4586   90.2191    9.7353 H       1  UNL1        0.1437
     24 H          62.7728   89.1921   11.0598 H       1  UNL1        0.1437
     25 C          67.4793   91.7464   14.5656 C.3     1  UNL1        0.0067
     26 C          65.9855   91.6606   14.4589 C.3     1  UNL1        0.0460
     27 C          62.7834   83.0003   14.2724 C.ar    1  UNL1        0.0220
     28 C          61.3585   82.5818   14.4834 C.ar    1  UNL1        0.0004
     29 C          60.9395   81.1719   14.1889 C.ar    1  UNL1        0.0112
     30 C          61.9453   80.1805   13.6836 C.ar    1  UNL1        0.0577
     31 CL         61.5262   78.7706   13.3891 Cl      1  UNL1       -0.0822
     32 C          63.3702   80.5990   13.4726 C.ar    1  UNL1        0.0112
     33 C          63.7893   82.0089   13.7670 C.ar    1  UNL1        0.0004
     34 C          62.8656   85.9399   10.9204 C.3     1  UNL1        0.1196
     35 C          61.5287   86.4144   10.4330 C.3     1  UNL1        0.1113
     36 N          60.5781   87.0820   11.3821 N.am    1  UNL1       -0.3026
     37 C          59.9907   88.4188   11.0387 C.2     1  UNL1        0.2230
     38 C          59.0401   89.0865   11.9877 C.3     1  UNL1        0.0946
     39 O          60.3539   89.0880    9.7462 O.2     1  UNL1       -0.2751
     40 H          60.3397   86.6428   12.2303 H       1  UNL1        0.1495
@<TRIPOS>BOND
     1    25    26    1
     2    26    13    1
     3    13    14   ar
     4    14    15   ar
     5    15    16    1
     6    15    17   ar
     7    17    18   ar
     8    18    19    1
     9    18    20   ar
    10    20     1    1
    11     1     2   ar
    12     2     3   ar
    13     3     4   ar
    14     4     5   ar
    15     5     6   ar
    16     5     7    1
    17     7    34    1
    18    34    35    1
    19    35    36    1
    20    36    37   am
    21    37    38    1
    22    37    39    2
    23     7     8   am
    24     8     9    2
    25     8    10    1
    26    10    11    1
    27    10    27    1
    28    27    28   ar
    29    28    29   ar
    30    29    30   ar
    31    30    31    1
    32    30    32   ar
    33    32    33   ar
    34    10    12    1
    35    20    13   ar
    36     6     1   ar
    37    33    27   ar
    38    12     4    1
    39    16    21    1
    40    16    22    1
    41    19    23    1
    42    19    24    1
    43    36    40    1
@<TRIPOS>MOLECULE
*****
 40 43 0 0 0
SMALL
GASTEIGER

@<TRIPOS>ATOM
      1 C          64.1269   89.5113   13.2463 C.ar    1  UNL1        0.0053
      2 C          64.2400   89.4463   14.7406 C.ar    1  UNL1        0.0033
      3 C          64.0002   88.1494   15.4551 C.ar    1  UNL1        0.0382
      4 C          63.6473   86.9176   14.6753 C.ar    1  UNL1        0.1529
      5 C          63.5342   86.9826   13.1810 C.ar    1  UNL1        0.0882
      6 C          63.7740   88.2795   12.4665 C.ar    1  UNL1        0.0181
      7 N          63.1814   85.7508   12.4013 N.am    1  UNL1       -0.2512
      8 C          62.9416   84.4539   13.1158 C.2     1  UNL1        0.2698
      9 O          62.5888   83.2220   12.3360 O.2     1  UNL1       -0.2704
     10 C          63.0547   84.3888   14.6101 C.3     1  UNL1        0.2197
     11 C          63.0440   83.8283   16.0014 C.3     1  UNL1        0.0579
     12 O          63.4076   85.6206   15.3899 O.3     1  UNL1       -0.4686
     13 C          63.6071   91.1251   11.2776 C.ar    1  UNL1        0.0645
     14 N          63.8468   92.4220   10.5631 N.ar    1  UNL1       -0.2183
     15 C          64.8461   93.4020   11.1026 C.ar    1  UNL1        0.2145
     16 N          65.0858   94.6989   10.3880 N.pl3   1  UNL1       -0.3274
     17 N          65.6056   93.0852   12.3566 N.ar    1  UNL1       -0.1995
     18 C          65.3659   91.7882   13.0712 C.ar    1  UNL1        0.1293
     19 N          66.1254   91.4714   14.3253 N.pl3   1  UNL1       -0.3425
     20 C          64.3666   90.8083   12.5317 C.ar    1  UNL1        0.0449
     21 H          64.5873   94.9069    9.5649 H       1  UNL1        0.1452
     22 H          65.7417   95.3421   10.7421 H       1  UNL1        0.1452
     23 H          66.7812   92.1146   14.6794 H       1  UNL1        0.1437
     24 H          65.9680   90.6202   14.7943 H       1  UNL1        0.1437
     25 C          61.1398   90.3944   10.9190 C.3     1  UNL1        0.0067
     26 C          62.6078   90.1451   10.7381 C.3     1  UNL1        0.0460
     27 C          62.6981   82.9623   14.3135 C.ar    1  UNL1        0.0220
     28 C          63.7630   81.9965   13.8854 C.ar    1  UNL1        0.0004
     29 C          63.4063   80.5700   13.5888 C.ar    1  UNL1        0.0112
     30 C          61.9850   80.1093   13.7203 C.ar    1  UNL1        0.0577
     31 CL         61.6284   78.6828   13.4237 Cl      1  UNL1       -0.0822
     32 C          60.9202   81.0751   14.1485 C.ar    1  UNL1        0.0112
     33 C          61.2767   82.5016   14.4451 C.ar    1  UNL1        0.0004
     34 C          63.0683   85.8158   10.9070 C.3     1  UNL1        0.1196
     35 C          61.7168   85.8096   10.2561 C.3     1  UNL1        0.1113
     36 N          61.1112   87.0941    9.7729 N.am    1  UNL1       -0.3026
     37 C          60.2824   87.1088    8.5227 C.2     1  UNL1        0.2230
     38 C          59.6768   88.3932    8.0395 C.3     1  UNL1        0.0946
     39 O          60.0591   85.8390    7.7559 O.2     1  UNL1       -0.2751
     40 H          61.2578   87.9274   10.2762 H       1  UNL1        0.1495
@<TRIPOS>BOND
     1    25    26    1
     2    26    13    1
     3    13    14   ar
     4    14    15   ar
     5    15    16    1
     6    15    17   ar
     7    17    18   ar
     8    18    19    1
     9    18    20   ar
    10    20     1    1
    11     1     2   ar
    12     2     3   ar
    13     3     4   ar
    14     4     5   ar
    15     5     6   ar
    16     5     7    1
    17     7    34    1
    18    34    35    1
    19    35    36    1
    20    36    37   am
    21    37    38    1
    22    37    39    2
    23     7     8   am
    24     8     9    2
    25     8    10    1
    26    10    11    1
    27    10    27    1
    28    27    28   ar
    29    28    29   ar
    30    29    30   ar
    31    30    31    1
    32    30    32   ar
    33    32    33   ar
    34    10    12    1
    35    20    13   ar
    36     6     1   ar
    37    33    27   ar
    38    12     4    1
    39    16    21    1
    40    16    22    1
    41    19    23    1
    42    19    24    1
    43    36    40    1
@<TRIPOS>MOLECULE
*****
 40 43 0 0 0
SMALL
GASTEIGER

@<TRIPOS>ATOM
      1 C          63.6644   89.2829   13.6995 C.ar    1  UNL1        0.0053
      2 C          62.9764   89.6273   12.4120 C.ar    1  UNL1        0.0033
      3 C          62.5882   88.5395   11.4548 C.ar    1  UNL1        0.0382
      4 C          62.8880   87.1075   11.7853 C.ar    1  UNL1        0.1529
      5 C          63.5761   86.7631   13.0729 C.ar    1  UNL1        0.0882
      6 C          63.9643   87.8508   14.0300 C.ar    1  UNL1        0.0181
      7 N          63.8760   85.3310   13.4033 N.am    1  UNL1       -0.2512
      8 C          63.4878   84.2433   12.4462 C.2     1  UNL1        0.2698
      9 O          63.7876   82.8112   12.7767 O.2     1  UNL1       -0.2704
     10 C          62.7997   84.5876   11.1585 C.3     1  UNL1        0.2197
     11 C          62.1356   84.4137    9.8248 C.3     1  UNL1        0.0579
     12 O          62.4998   86.0197   10.8281 O.3     1  UNL1       -0.4686
     13 C          65.0978   91.3739   14.2680 C.ar    1  UNL1        0.0645
     14 N          65.4860   92.4616   15.2252 N.ar    1  UNL1       -0.2183
     15 C          64.8292   92.5461   16.5711 C.ar    1  UNL1        0.2145
     16 N          65.2174   93.6338   17.5282 N.pl3   1  UNL1       -0.3274
     17 N          63.7840   91.5428   16.9598 N.ar    1  UNL1       -0.1995
     18 C          63.3958   90.4550   16.0026 C.ar    1  UNL1        0.1293
     19 N          62.3507   89.4517   16.3913 N.pl3   1  UNL1       -0.3425
     20 C          64.0527   90.3706   14.6568 C.ar    1  UNL1        0.0449
     21 H          65.9034   94.2923   17.2731 H       1  UNL1        0.1452
     22 H          64.7863   93.6892   18.4116 H       1  UNL1        0.1452
     23 H          61.9195   89.5071   17.2747 H       1  UNL1        0.1437
     24 H          62.0959   88.7378   15.7631 H       1  UNL1        0.1437
     25 C          65.5195   92.3656   11.9039 C.3     1  UNL1        0.0067
     26 C          65.7547   91.2895   12.9221 C.3     1  UNL1        0.0460
     27 C          62.8689   83.0952   11.0258 C.ar    1  UNL1        0.0220
     28 C          62.1311   82.2209   11.9960 C.ar    1  UNL1        0.0004
     29 C          62.2004   80.7283   11.8632 C.ar    1  UNL1        0.0112
     30 C          63.0074   80.1101   10.7604 C.ar    1  UNL1        0.0577
     31 CL         63.0767   78.6176   10.6277 Cl      1  UNL1       -0.0822
     32 C          63.7452   80.9844    9.7903 C.ar    1  UNL1        0.0112
     33 C          63.6760   82.4769    9.9229 C.ar    1  UNL1        0.0004
     34 C          64.5640   84.9866   14.6909 C.3     1  UNL1        0.1196
     35 C          63.7539   84.6403   15.9049 C.3     1  UNL1        0.1113
     36 N          63.8198   85.5117   17.1241 N.am    1  UNL1       -0.3026
     37 C          62.5833   86.1997   17.6219 C.2     1  UNL1        0.2230
     38 C          62.6491   87.0711   18.8411 C.3     1  UNL1        0.0946
     39 O          61.2809   86.0162   16.9005 O.2     1  UNL1       -0.2751
     40 H          64.6745   85.6321   17.5976 H       1  UNL1        0.1495
@<TRIPOS>BOND
     1    25    26    1
     2    26    13    1
     3    13    14   ar
     4    14    15   ar
     5    15    16    1
     6    15    17   ar
     7    17    18   ar
     8    18    19    1
     9    18    20   ar
    10    20     1    1
    11     1     2   ar
    12     2     3   ar
    13     3     4   ar
    14     4     5   ar
    15     5     6   ar
    16     5     7    1
    17     7    34    1
    18    34    35    1
    19    35    36    1
    20    36    37   am
    21    37    38    1
    22    37    39    2
    23     7     8   am
    24     8     9    2
    25     8    10    1
    26    10    11    1
    27    10    27    1
    28    27    28   ar
    29    28    29   ar
    30    29    30   ar
    31    30    31    1
    32    30    32   ar
    33    32    33   ar
    34    10    12    1
    35    20    13   ar
    36     6     1   ar
    37    33    27   ar
    38    12     4    1
    39    16    21    1
    40    16    22    1
    41    19    23    1
    42    19    24    1
    43    36    40    1
@<TRIPOS>MOLECULE
*****
 40 43 0 0 0
SMALL
GASTEIGER

@<TRIPOS>ATOM
      1 C          62.2746   94.6973   -1.4801 C.ar    1  UNL1        0.0053
      2 C          62.7895   93.8623   -2.6148 C.ar    1  UNL1        0.0033
      3 C          61.9611   93.6867   -3.8528 C.ar    1  UNL1        0.0382
      4 C          60.6177   94.3460   -3.9562 C.ar    1  UNL1        0.1529
      5 C          60.1028   95.1810   -2.8215 C.ar    1  UNL1        0.0882
      6 C          60.9313   95.3567   -1.5835 C.ar    1  UNL1        0.0181
      7 N          58.7595   95.8404   -2.9248 N.am    1  UNL1       -0.2512
      8 C          57.9310   95.6647   -4.1629 C.2     1  UNL1        0.2698
      9 O          56.5877   96.3241   -4.2662 O.2     1  UNL1       -0.2704
     10 C          58.4459   94.8297   -5.2977 C.3     1  UNL1        0.2197
     11 C          58.5010   94.1405   -6.6288 C.3     1  UNL1        0.0579
     12 O          59.7893   94.1703   -5.1943 O.3     1  UNL1       -0.4686
     13 C          62.8912   93.9697    0.9366 C.ar    1  UNL1        0.0645
     14 N          63.7196   94.1453    2.1747 N.ar    1  UNL1       -0.2183
     15 C          64.7599   95.2244    2.2342 C.ar    1  UNL1        0.2145
     16 N          65.5883   95.4000    3.4723 N.pl3   1  UNL1       -0.3274
     17 N          64.9717   96.1278    1.0556 N.ar    1  UNL1       -0.1995
     18 C          64.1433   95.9521   -0.1825 C.ar    1  UNL1        0.1293
     19 N          64.3551   96.8554   -1.3611 N.pl3   1  UNL1       -0.3425
     20 C          63.1031   94.8730   -0.2420 C.ar    1  UNL1        0.0449
     21 H          65.4492   94.8071    4.2458 H       1  UNL1        0.1452
     22 H          66.2710   96.1082    3.5114 H       1  UNL1        0.1452
     23 H          65.0379   97.5636   -1.3220 H       1  UNL1        0.1437
     24 H          63.8114   96.7401   -2.1737 H       1  UNL1        0.1437
     25 C          60.5029   93.1135    1.4960 C.3     1  UNL1        0.0067
     26 C          61.8509   92.8906    0.8770 C.3     1  UNL1        0.0460
     27 C          57.1217   95.2497   -5.8633 C.ar    1  UNL1        0.0220
     28 C          57.0390   96.4356   -6.7780 C.ar    1  UNL1        0.0004
     29 C          55.7147   96.8556   -7.3437 C.ar    1  UNL1        0.0112
     30 C          54.4732   96.0897   -6.9946 C.ar    1  UNL1        0.0577
     31 CL         53.1489   96.5097   -7.5602 Cl      1  UNL1       -0.0822
     32 C          54.5559   94.9038   -6.0798 C.ar    1  UNL1        0.0112
     33 C          55.8801   94.4838   -5.5142 C.ar    1  UNL1        0.0004
     34 C          58.2446   96.6754   -1.7901 C.3     1  UNL1        0.1196
     35 C          57.1583   96.1455   -0.9017 C.3     1  UNL1        0.1113
     36 N          55.7199   96.4018   -1.2414 N.am    1  UNL1       -0.3026
     37 C          54.8384   95.2685   -1.6758 C.2     1  UNL1        0.2230
     38 C          53.4000   95.5248   -2.0154 C.3     1  UNL1        0.0946
     39 O          55.3954   93.8790   -1.7705 O.2     1  UNL1       -0.2751
     40 H          55.3543   97.3138   -1.1791 H       1  UNL1        0.1495
@<TRIPOS>BOND
     1    25    26    1
     2    26    13    1
     3    13    14   ar
     4    14    15   ar
     5    15    16    1
     6    15    17   ar
     7    17    18   ar
     8    18    19    1
     9    18    20   ar
    10    20     1    1
    11     1     2   ar
    12     2     3   ar
    13     3     4   ar
    14     4     5   ar
    15     5     6   ar
    16     5     7    1
    17     7    34    1
    18    34    35    1
    19    35    36    1
    20    36    37   am
    21    37    38    1
    22    37    39    2
    23     7     8   am
    24     8     9    2
    25     8    10    1
    26    10    11    1
    27    10    27    1
    28    27    28   ar
    29    28    29   ar
    30    29    30   ar
    31    30    31    1
    32    30    32   ar
    33    32    33   ar
    34    10    12    1
    35    20    13   ar
    36     6     1   ar
    37    33    27   ar
    38    12     4    1
    39    16    21    1
    40    16    22    1
    41    19    23    1
    42    19    24    1
    43    36    40    1
@<TRIPOS>MOLECULE
*****
 40 43 0 0 0
SMALL
GASTEIGER

@<TRIPOS>ATOM
      1 C          62.3114   94.6836   -1.4453 C.ar    1  UNL1        0.0053
      2 C          62.8285   93.8556   -2.5842 C.ar    1  UNL1        0.0033
      3 C          62.0061   93.6946   -3.8282 C.ar    1  UNL1        0.0382
      4 C          60.6666   94.3615   -3.9334 C.ar    1  UNL1        0.1529
      5 C          60.1496   95.1894   -2.7945 C.ar    1  UNL1        0.0882
      6 C          60.9720   95.3505   -1.5504 C.ar    1  UNL1        0.0181
      7 N          58.8101   95.8563   -2.8996 N.am    1  UNL1       -0.2512
      8 C          57.9877   95.6953   -4.1436 C.2     1  UNL1        0.2698
      9 O          56.6482   96.3622   -4.2488 O.2     1  UNL1       -0.2704
     10 C          58.5047   94.8673   -5.2826 C.3     1  UNL1        0.2197
     11 C          58.5637   94.1892   -6.6193 C.3     1  UNL1        0.0579
     12 O          59.8442   94.2004   -5.1775 O.3     1  UNL1       -0.4686
     13 C          64.1680   95.9282   -0.1209 C.ar    1  UNL1        0.0645
     14 N          64.9904   96.0893    1.1232 N.ar    1  UNL1       -0.2183
     15 C          64.7787   95.1669    2.2870 C.ar    1  UNL1        0.2145
     16 N          65.6011   95.3280    3.5310 N.pl3   1  UNL1       -0.3274
     17 N          63.7445   94.0833    2.2066 N.ar    1  UNL1       -0.1995
     18 C          62.9221   93.9223    0.9625 C.ar    1  UNL1        0.1293
     19 N          61.8879   92.8387    0.8822 N.pl3   1  UNL1       -0.3425
     20 C          63.1339   94.8447   -0.2012 C.ar    1  UNL1        0.0449
     21 H          66.2799   96.0392    3.5837 H       1  UNL1        0.1452
     22 H          65.4621   94.7226    4.2948 H       1  UNL1        0.1452
     23 H          61.7490   92.2333    1.6460 H       1  UNL1        0.1437
     24 H          61.3482   92.7330    0.0657 H       1  UNL1        0.1437
     25 C          65.5234   96.6187   -2.2271 C.3     1  UNL1        0.0067
     26 C          64.3798   96.8507   -1.2847 C.3     1  UNL1        0.0460
     27 C          57.1858   95.2987   -5.8519 C.ar    1  UNL1        0.0220
     28 C          55.9241   94.6057   -5.4301 C.ar    1  UNL1        0.0004
     29 C          54.6051   95.0371   -5.9995 C.ar    1  UNL1        0.0112
     30 C          54.5477   96.1614   -6.9906 C.ar    1  UNL1        0.0577
     31 CL         53.2287   96.5929   -7.5600 Cl      1  UNL1       -0.0822
     32 C          55.8094   96.8545   -7.4124 C.ar    1  UNL1        0.0112
     33 C          57.1284   96.4232   -6.8431 C.ar    1  UNL1        0.0004
     34 C          58.2930   96.6843   -1.7607 C.3     1  UNL1        0.1196
     35 C          57.2528   96.1231   -0.8372 C.3     1  UNL1        0.1113
     36 N          55.8039   96.4443   -1.0557 N.am    1  UNL1       -0.3026
     37 C          54.8692   95.3860   -1.5618 C.2     1  UNL1        0.2230
     38 C          53.4204   95.7071   -1.7804 C.3     1  UNL1        0.0946
     39 O          55.3833   94.0064   -1.8494 O.2     1  UNL1       -0.2751
     40 H          55.4666   97.3497   -0.8670 H       1  UNL1        0.1495
@<TRIPOS>BOND
     1    25    26    1
     2    26    13    1
     3    13    14   ar
     4    14    15   ar
     5    15    16    1
     6    15    17   ar
     7    17    18   ar
     8    18    19    1
     9    18    20   ar
    10    20     1    1
    11     1     2   ar
    12     2     3   ar
    13     3     4   ar
    14     4     5   ar
    15     5     6   ar
    16     5     7    1
    17     7    34    1
    18    34    35    1
    19    35    36    1
    20    36    37   am
    21    37    38    1
    22    37    39    2
    23     7     8   am
    24     8     9    2
    25     8    10    1
    26    10    11    1
    27    10    27    1
    28    27    28   ar
    29    28    29   ar
    30    29    30   ar
    31    30    31    1
    32    30    32   ar
    33    32    33   ar
    34    10    12    1
    35    20    13   ar
    36     6     1   ar
    37    33    27   ar
    38    12     4    1
    39    16    21    1
    40    16    22    1
    41    19    23    1
    42    19    24    1
    43    36    40    1
@<TRIPOS>MOLECULE
*****
 40 43 0 0 0
SMALL
GASTEIGER

@<TRIPOS>ATOM
      1 C          64.9391   90.4007   13.7636 C.ar    1  UNL1        0.0053
      2 C          63.9329   90.6991   12.6919 C.ar    1  UNL1        0.0033
      3 C          63.1277   89.5867   12.0885 C.ar    1  UNL1        0.0382
      4 C          63.3288   88.1759   12.5567 C.ar    1  UNL1        0.1529
      5 C          64.3350   87.8775   13.6283 C.ar    1  UNL1        0.0882
      6 C          65.1402   88.9899   14.2318 C.ar    1  UNL1        0.0181
      7 N          64.5360   86.4667   14.0965 N.am    1  UNL1       -0.2512
      8 C          63.7309   85.3543   13.4931 C.2     1  UNL1        0.2698
      9 O          63.9319   83.9435   13.9613 O.2     1  UNL1       -0.2704
     10 C          62.7246   85.6526   12.4214 C.3     1  UNL1        0.2197
     11 C          61.6597   85.4348   11.3877 C.3     1  UNL1        0.0579
     12 O          62.5235   87.0634   11.9532 O.3     1  UNL1       -0.4686
     13 C          66.8758   92.1244   13.5949 C.ar    1  UNL1        0.0645
     14 N          67.6810   93.2367   14.1983 N.ar    1  UNL1       -0.2183
     15 C          67.3548   93.7380   15.5740 C.ar    1  UNL1        0.2145
     16 N          68.1600   94.8504   16.1774 N.pl3   1  UNL1       -0.3274
     17 N          66.2234   93.1268   16.3461 N.ar    1  UNL1       -0.1995
     18 C          65.4181   92.0144   15.7427 C.ar    1  UNL1        0.1293
     19 N          64.2867   91.4032   16.5148 N.pl3   1  UNL1       -0.3425
     20 C          65.7444   91.5132   14.3671 C.ar    1  UNL1        0.0449
     21 H          68.9027   95.2515   15.6706 H       1  UNL1        0.1452
     22 H          67.9459   95.1794   17.0803 H       1  UNL1        0.1452
     23 H          64.0725   91.7322   17.4177 H       1  UNL1        0.1437
     24 H          63.7582   90.6731   16.1188 H       1  UNL1        0.1437
     25 C          66.9524   92.4951   11.0245 C.3     1  UNL1        0.0067
     26 C          67.2020   91.6231   12.2192 C.3     1  UNL1        0.0460
     27 C          62.5558   84.1662   12.5306 C.ar    1  UNL1        0.0220
     28 C          61.9281   83.5707   13.7558 C.ar    1  UNL1        0.0004
     29 C          61.7593   82.0841   13.8650 C.ar    1  UNL1        0.0112
     30 C          62.2183   81.1932   12.7491 C.ar    1  UNL1        0.0577
     31 CL         62.0495   79.7067   12.8582 Cl      1  UNL1       -0.0822
     32 C          62.8460   81.7888   11.5238 C.ar    1  UNL1        0.0112
     33 C          63.0148   83.2753   11.4145 C.ar    1  UNL1        0.0004
     34 C          65.5423   86.1683   15.1682 C.3     1  UNL1        0.1196
     35 C          65.0897   85.6292   16.4927 C.3     1  UNL1        0.1113
     36 N          63.6305   85.3919   16.7470 N.am    1  UNL1       -0.3026
     37 C          62.7071   86.5551   16.9572 C.2     1  UNL1        0.2230
     38 C          61.2480   86.3179   17.2114 C.3     1  UNL1        0.0946
     39 O          63.2428   87.9555   16.9131 O.2     1  UNL1       -0.2751
     40 H          63.2790   84.4728   16.7759 H       1  UNL1        0.1495
@<TRIPOS>BOND
     1    25    26    1
     2    26    13    1
     3    13    14   ar
     4    14    15   ar
     5    15    16    1
     6    15    17   ar
     7    17    18   ar
     8    18    19    1
     9    18    20   ar
    10    20     1    1
    11     1     2   ar
    12     2     3   ar
    13     3     4   ar
    14     4     5   ar
    15     5     6   ar
    16     5     7    1
    17     7    34    1
    18    34    35    1
    19    35    36    1
    20    36    37   am
    21    37    38    1
    22    37    39    2
    23     7     8   am
    24     8     9    2
    25     8    10    1
    26    10    11    1
    27    10    27    1
    28    27    28   ar
    29    28    29   ar
    30    29    30   ar
    31    30    31    1
    32    30    32   ar
    33    32    33   ar
    34    10    12    1
    35    20    13   ar
    36     6     1   ar
    37    33    27   ar
    38    12     4    1
    39    16    21    1
    40    16    22    1
    41    19    23    1
    42    19    24    1
    43    36    40    1
@<TRIPOS>MOLECULE
*****
 40 43 0 0 0
SMALL
GASTEIGER

@<TRIPOS>ATOM
      1 C          61.9178   89.2418   11.6876 C.ar    1  UNL1        0.0053
      2 C          61.3683   89.1016   13.0762 C.ar    1  UNL1        0.0033
      3 C          62.1041   89.7007   14.2380 C.ar    1  UNL1        0.0382
      4 C          63.3893   90.4401   14.0111 C.ar    1  UNL1        0.1529
      5 C          63.9388   90.5804   12.6224 C.ar    1  UNL1        0.0882
      6 C          63.2030   89.9813   11.4607 C.ar    1  UNL1        0.0181
      7 N          65.2240   91.3198   12.3955 N.am    1  UNL1       -0.2512
      8 C          65.9597   91.9190   13.5573 C.2     1  UNL1        0.2698
      9 O          67.2449   92.6584   13.3304 O.2     1  UNL1       -0.2704
     10 C          65.4102   91.7787   14.9460 C.3     1  UNL1        0.2197
     11 C          65.2929   91.9112   16.4355 C.3     1  UNL1        0.0579
     12 O          64.1250   91.0393   15.1729 O.3     1  UNL1       -0.4686
     13 C          61.3833   87.1982   10.1749 C.ar    1  UNL1        0.0645
     14 N          60.6477   86.5991    9.0132 N.ar    1  UNL1       -0.2183
     15 C          59.7107   87.4443    8.2022 C.ar    1  UNL1        0.2145
     16 N          58.9750   86.8452    7.0404 N.pl3   1  UNL1       -0.3274
     17 N          59.5094   88.8888    8.5530 N.ar    1  UNL1       -0.1995
     18 C          60.2451   89.4879    9.7149 C.ar    1  UNL1        0.1293
     19 N          60.0439   90.9324   10.0657 N.pl3   1  UNL1       -0.3425
     20 C          61.1821   88.6427   10.5258 C.ar    1  UNL1        0.0449
     21 H          59.1071   85.8971    6.8102 H       1  UNL1        0.1452
     22 H          58.3600   87.3999    6.5082 H       1  UNL1        0.1452
     23 H          59.4289   91.4871    9.5335 H       1  UNL1        0.1437
     24 H          60.5267   91.3256   10.8282 H       1  UNL1        0.1437
     25 C          62.4825   84.8962   10.6673 C.3     1  UNL1        0.0067
     26 C          62.3204   86.3530   10.9859 C.3     1  UNL1        0.0460
     27 C          66.6547   92.5641   15.2364 C.ar    1  UNL1        0.0220
     28 C          67.8209   91.9007   15.9071 C.ar    1  UNL1        0.0004
     29 C          69.0654   92.6862   16.1975 C.ar    1  UNL1        0.0112
     30 C          69.1437   94.1350   15.8172 C.ar    1  UNL1        0.0577
     31 CL         70.3882   94.9205   16.1076 Cl      1  UNL1       -0.0822
     32 C          67.9775   94.7984   15.1465 C.ar    1  UNL1        0.0112
     33 C          66.7330   94.0131   14.8561 C.ar    1  UNL1        0.0004
     34 C          65.7734   91.4601   11.0069 C.3     1  UNL1        0.1196
     35 C          65.6284   92.7589   10.2706 C.3     1  UNL1        0.1113
     36 N          65.4166   94.0335   11.0326 N.am    1  UNL1       -0.3026
     37 C          66.4315   95.1349   10.9487 C.2     1  UNL1        0.2230
     38 C          66.2197   96.4094   11.7107 C.3     1  UNL1        0.0946
     39 O          67.6581   94.9617   10.1028 O.2     1  UNL1       -0.2751
     40 H          64.6116   94.1471   11.5878 H       1  UNL1        0.1495
@<TRIPOS>BOND
     1    25    26    1
     2    26    13    1
     3    13    14   ar
     4    14    15   ar
     5    15    16    1
     6    15    17   ar
     7    17    18   ar
     8    18    19    1
     9    18    20   ar
    10    20     1    1
    11     1     2   ar
    12     2     3   ar
    13     3     4   ar
    14     4     5   ar
    15     5     6   ar
    16     5     7    1
    17     7    34    1
    18    34    35    1
    19    35    36    1
    20    36    37   am
    21    37    38    1
    22    37    39    2
    23     7     8   am
    24     8     9    2
    25     8    10    1
    26    10    11    1
    27    10    27    1
    28    27    28   ar
    29    28    29   ar
    30    29    30   ar
    31    30    31    1
    32    30    32   ar
    33    32    33   ar
    34    10    12    1
    35    20    13   ar
    36     6     1   ar
    37    33    27   ar
    38    12     4    1
    39    16    21    1
    40    16    22    1
    41    19    23    1
    42    19    24    1
    43    36    40    1
@<TRIPOS>MOLECULE
*****
 40 43 0 0 0
SMALL
GASTEIGER

@<TRIPOS>ATOM
      1 C          62.3413   88.5973   11.0721 C.ar    1  UNL1        0.0053
      2 C          62.4911   87.6368   12.2144 C.ar    1  UNL1        0.0033
      3 C          63.4425   87.9440   13.3326 C.ar    1  UNL1        0.0382
      4 C          64.2441   89.2116   13.3085 C.ar    1  UNL1        0.1529
      5 C          64.0942   90.1721   12.1662 C.ar    1  UNL1        0.0882
      6 C          63.1428   89.8649   11.0480 C.ar    1  UNL1        0.0181
      7 N          64.8958   91.4397   12.1421 N.am    1  UNL1       -0.2512
      8 C          65.8472   91.7469   13.2603 C.2     1  UNL1        0.2698
      9 O          66.6488   93.0145   13.2361 O.2     1  UNL1       -0.2704
     10 C          65.9971   90.7864   14.4027 C.3     1  UNL1        0.2197
     11 C          66.4841   90.1948   15.6922 C.3     1  UNL1        0.0579
     12 O          65.1955   89.5187   14.4268 O.3     1  UNL1       -0.4686
     13 C          60.2831   89.2482    9.6263 C.ar    1  UNL1        0.0645
     14 N          59.3317   88.9411    8.5081 N.ar    1  UNL1       -0.2183
     15 C          59.4870   87.6759    7.7173 C.ar    1  UNL1        0.2145
     16 N          58.5356   87.3688    6.5991 N.pl3   1  UNL1       -0.3274
     17 N          60.5938   86.7179    8.0448 N.ar    1  UNL1       -0.1995
     18 C          61.5452   87.0250    9.1631 C.ar    1  UNL1        0.1293
     19 N          62.6520   86.0670    9.4906 N.pl3   1  UNL1       -0.3425
     20 C          61.3898   88.2901    9.9538 C.ar    1  UNL1        0.0449
     21 H          57.8092   87.9976    6.3842 H       1  UNL1        0.1452
     22 H          58.6375   86.5385    6.0801 H       1  UNL1        0.1452
     23 H          62.7539   85.2366    8.9716 H       1  UNL1        0.1437
     24 H          63.2764   86.2686   10.2245 H       1  UNL1        0.1437
     25 C          59.2149   90.5468   11.6069 C.3     1  UNL1        0.0067
     26 C          60.1278   90.5133   10.4171 C.3     1  UNL1        0.0460
     27 C          66.9677   91.8486   14.8264 C.ar    1  UNL1        0.0220
     28 C          68.3772   91.8243   14.3136 C.ar    1  UNL1        0.0004
     29 C          69.3478   92.8865   14.7373 C.ar    1  UNL1        0.0112
     30 C          68.9092   93.9729   15.6738 C.ar    1  UNL1        0.0577
     31 CL         69.8798   95.0352   16.0975 Cl      1  UNL1       -0.0822
     32 C          67.4998   93.9972   16.1866 C.ar    1  UNL1        0.0112
     33 C          66.5290   92.9351   15.7629 C.ar    1  UNL1        0.0004
     34 C          64.7460   92.4002   10.9997 C.3     1  UNL1        0.1196
     35 C          65.9494   92.8164   10.2070 C.3     1  UNL1        0.1113
     36 N          66.0397   94.2087    9.6559 N.am    1  UNL1       -0.3026
     37 C          67.3809   94.8169    9.3708 C.2     1  UNL1        0.2230
     38 C          67.4713   96.2090    8.8198 C.3     1  UNL1        0.0946
     39 O          68.6318   94.0329    9.6368 O.2     1  UNL1       -0.2751
     40 H          65.2187   94.7232    9.4813 H       1  UNL1        0.1495
@<TRIPOS>BOND
     1    25    26    1
     2    26    13    1
     3    13    14   ar
     4    14    15   ar
     5    15    16    1
     6    15    17   ar
     7    17    18   ar
     8    18    19    1
     9    18    20   ar
    10    20     1    1
    11     1     2   ar
    12     2     3   ar
    13     3     4   ar
    14     4     5   ar
    15     5     6   ar
    16     5     7    1
    17     7    34    1
    18    34    35    1
    19    35    36    1
    20    36    37   am
    21    37    38    1
    22    37    39    2
    23     7     8   am
    24     8     9    2
    25     8    10    1
    26    10    11    1
    27    10    27    1
    28    27    28   ar
    29    28    29   ar
    30    29    30   ar
    31    30    31    1
    32    30    32   ar
    33    32    33   ar
    34    10    12    1
    35    20    13   ar
    36     6     1   ar
    37    33    27   ar
    38    12     4    1
    39    16    21    1
    40    16    22    1
    41    19    23    1
    42    19    24    1
    43    36    40    1
@<TRIPOS>MOLECULE
*****
 40 43 0 0 0
SMALL
GASTEIGER

@<TRIPOS>ATOM
      1 C          61.3196   93.9619   -0.9290 C.ar    1  UNL1        0.0053
      2 C          62.0447   94.9422   -1.8026 C.ar    1  UNL1        0.0033
      3 C          61.3117   95.6523   -2.9018 C.ar    1  UNL1        0.0382
      4 C          59.8535   95.3822   -3.1274 C.ar    1  UNL1        0.1529
      5 C          59.1284   94.4020   -2.2538 C.ar    1  UNL1        0.0882
      6 C          59.8614   93.6918   -1.1546 C.ar    1  UNL1        0.0181
      7 N          57.6703   94.1319   -2.4794 N.am    1  UNL1       -0.2512
      8 C          56.9373   94.8420   -3.5786 C.2     1  UNL1        0.2698
      9 O          55.4791   94.5719   -3.8042 O.2     1  UNL1       -0.2704
     10 C          57.6624   95.8224   -4.4523 C.3     1  UNL1        0.2197
     11 C          57.9111   96.8304   -5.5349 C.3     1  UNL1        0.0579
     12 O          59.1205   96.0924   -4.2267 O.3     1  UNL1       -0.4686
     13 C          63.5435   93.3750    0.2791 C.ar    1  UNL1        0.0645
     14 N          64.2766   92.6648    1.3783 N.ar    1  UNL1       -0.2183
     15 C          63.5186   91.8313    2.3688 C.ar    1  UNL1        0.2145
     16 N          64.2516   91.1211    3.4680 N.pl3   1  UNL1       -0.3274
     17 N          62.0276   91.7080    2.2599 N.ar    1  UNL1       -0.1995
     18 C          61.2946   92.4183    1.1607 C.ar    1  UNL1        0.1293
     19 N          59.8037   92.2950    1.0518 N.pl3   1  UNL1       -0.3425
     20 C          62.0526   93.2517    0.1703 C.ar    1  UNL1        0.0449
     21 H          65.2302   91.2021    3.5394 H       1  UNL1        0.1452
     22 H          63.7542   90.5741    4.1180 H       1  UNL1        0.1452
     23 H          59.3062   91.7480    1.7018 H       1  UNL1        0.1437
     24 H          59.3226   92.7611    0.3303 H       1  UNL1        0.1437
     25 C          65.2961   95.2237   -0.2317 C.3     1  UNL1        0.0067
     26 C          64.3015   94.2084   -0.7113 C.3     1  UNL1        0.0460
     27 C          56.2907   95.9023   -5.0539 C.ar    1  UNL1        0.0220
     28 C          55.9646   95.1109   -6.2856 C.ar    1  UNL1        0.0004
     29 C          54.5928   95.1909   -6.8872 C.ar    1  UNL1        0.0112
     30 C          53.5471   96.0623   -6.2570 C.ar    1  UNL1        0.0577
     31 CL         52.1753   96.1423   -6.8586 Cl      1  UNL1       -0.0822
     32 C          53.8732   96.8537   -5.0252 C.ar    1  UNL1        0.0112
     33 C          55.2450   96.7738   -4.4236 C.ar    1  UNL1        0.0004
     34 C          56.9452   93.1516   -1.6058 C.3     1  UNL1        0.1196
     35 C          56.3461   91.9136   -2.2044 C.3     1  UNL1        0.1113
     36 N          55.6558   91.9820   -3.5344 N.am    1  UNL1       -0.3026
     37 C          56.3098   91.3950   -4.7500 C.2     1  UNL1        0.2230
     38 C          55.6195   91.4634   -6.0799 C.3     1  UNL1        0.0946
     39 O          57.6542   90.7395   -4.6356 O.2     1  UNL1       -0.2751
     40 H          54.7734   92.4122   -3.6095 H       1  UNL1        0.1495
@<TRIPOS>BOND
     1    25    26    1
     2    26    13    1
     3    13    14   ar
     4    14    15   ar
     5    15    16    1
     6    15    17   ar
     7    17    18   ar
     8    18    19    1
     9    18    20   ar
    10    20     1    1
    11     1     2   ar
    12     2     3   ar
    13     3     4   ar
    14     4     5   ar
    15     5     6   ar
    16     5     7    1
    17     7    34    1
    18    34    35    1
    19    35    36    1
    20    36    37   am
    21    37    38    1
    22    37    39    2
    23     7     8   am
    24     8     9    2
    25     8    10    1
    26    10    11    1
    27    10    27    1
    28    27    28   ar
    29    28    29   ar
    30    29    30   ar
    31    30    31    1
    32    30    32   ar
    33    32    33   ar
    34    10    12    1
    35    20    13   ar
    36     6     1   ar
    37    33    27   ar
    38    12     4    1
    39    16    21    1
    40    16    22    1
    41    19    23    1
    42    19    24    1
    43    36    40    1
