@<TRIPOS>MOLECULE
*****
 12 13 0 0 0
SMALL
GASTEIGER

@<TRIPOS>ATOM
      1 O          65.5244   84.4363   14.1267 O.2     1  UNL1       -0.2455
      2 C          64.1408   84.0838   14.5863 C.2     1  UNL1        0.3418
      3 N          63.4713   82.8453   14.0687 N.ar    1  UNL1       -0.2390
      4 C          62.0979   82.3666   14.4355 C.ar    1  UNL1        0.1066
      5 C          61.8355   81.0935   13.6869 C.ar    1  UNL1        0.1198
      6 N          63.0467   80.7855   12.8573 N.ar    1  UNL1       -0.2219
      7 C          64.0577   81.8682   13.0933 C.ar    1  UNL1        0.1864
      8 N          63.4266   84.9698   15.5635 N.ar    1  UNL1       -0.2390
      9 C          63.9657   86.2337   16.1651 C.ar    1  UNL1        0.1066
     10 C          62.9202   86.7925   17.0840 C.ar    1  UNL1        0.1198
     11 N          61.7348   85.8739   17.0505 N.ar    1  UNL1       -0.2219
     12 C          62.0478   84.7475   16.1108 C.ar    1  UNL1        0.1864
@<TRIPOS>BOND
     1     1     2    2
     2     2     3   am
     3     3     4   ar
     4     4     5   ar
     5     5     6   ar
     6     6     7   ar
     7     2     8   am
     8     8     9   ar
     9     9    10   ar
    10    10    11   ar
    11    11    12   ar
    12     7     3   ar
    13    12     8   ar
@<TRIPOS>MOLECULE
*****
 12 13 0 0 0
SMALL
GASTEIGER

@<TRIPOS>ATOM
      1 O          61.6629   82.0876   14.5088 O.2     1  UNL1       -0.2455
      2 C          62.6732   83.0086   13.8915 C.2     1  UNL1        0.3418
      3 N          63.1000   84.2493   14.6187 N.ar    1  UNL1       -0.2390
      4 C          64.0953   85.2594   14.1298 C.ar    1  UNL1        0.1066
      5 C          64.2167   86.3320   15.1714 C.ar    1  UNL1        0.1198
      6 N          63.2965   85.9847   16.3039 N.ar    1  UNL1       -0.2219
      7 C          62.6063   84.6975   15.9623 C.ar    1  UNL1        0.1864
      8 N          63.2567   82.6890   12.5472 N.ar    1  UNL1       -0.2390
      9 C          62.9286   81.4915   11.7055 C.ar    1  UNL1        0.1066
     10 C          63.7399   81.5733   10.4467 C.ar    1  UNL1        0.1198
     11 N          64.5696   82.8213   10.5101 N.ar    1  UNL1       -0.2219
     12 C          64.2710   83.5109   11.8083 C.ar    1  UNL1        0.1864
@<TRIPOS>BOND
     1     1     2    2
     2     2     3   am
     3     3     4   ar
     4     4     5   ar
     5     5     6   ar
     6     6     7   ar
     7     2     8   am
     8     8     9   ar
     9     9    10   ar
    10    10    11   ar
    11    11    12   ar
    12     7     3   ar
    13    12     8   ar
@<TRIPOS>MOLECULE
*****
 12 13 0 0 0
SMALL
GASTEIGER

@<TRIPOS>ATOM
      1 O          64.6412   82.6152   10.4712 O.2     1  UNL1       -0.2455
      2 C          63.6807   83.4872   11.2242 C.2     1  UNL1        0.3418
      3 N          63.4440   83.2534   12.6869 N.ar    1  UNL1       -0.2390
      4 C          62.5181   84.0398   13.5669 C.ar    1  UNL1        0.1066
      5 C          62.5935   83.4646   14.9502 C.ar    1  UNL1        0.1198
      6 N          63.5660   82.3228   14.9251 N.ar    1  UNL1       -0.2219
      7 C          64.0916   82.1923   13.5263 C.ar    1  UNL1        0.1864
      8 N          62.9569   84.5929   10.5146 N.ar    1  UNL1       -0.2390
      9 C          63.0906   84.9448    9.0626 C.ar    1  UNL1        0.1066
     10 C          62.1886   86.1101    8.7831 C.ar    1  UNL1        0.1198
     11 N          61.4974   86.4786   10.0623 N.ar    1  UNL1       -0.2219
     12 C          61.9722   85.5409   11.1325 C.ar    1  UNL1        0.1864
@<TRIPOS>BOND
     1     1     2    2
     2     2     3   am
     3     3     4   ar
     4     4     5   ar
     5     5     6   ar
     6     6     7   ar
     7     2     8   am
     8     8     9   ar
     9     9    10   ar
    10    10    11   ar
    11    11    12   ar
    12     7     3   ar
    13    12     8   ar
@<TRIPOS>MOLECULE
*****
 12 13 0 0 0
SMALL
GASTEIGER

@<TRIPOS>ATOM
      1 O          64.2609   91.4548   14.2413 O.2     1  UNL1       -0.2455
      2 C          64.2337   91.5991   12.7485 C.2     1  UNL1        0.3418
      3 N          65.1652   92.5598   12.0707 N.ar    1  UNL1       -0.2390
      4 C          65.2522   92.8105   10.5944 C.ar    1  UNL1        0.1066
      5 C          66.3139   93.8442   10.3616 C.ar    1  UNL1        0.1198
      6 N          66.8831   94.2323   11.6940 N.ar    1  UNL1       -0.2219
      7 C          66.1731   93.4385   12.7504 C.ar    1  UNL1        0.1864
      8 N          63.2751   90.7826   11.9334 N.ar    1  UNL1       -0.2390
      9 C          62.2892   89.7865   12.4681 C.ar    1  UNL1        0.1066
     10 C          61.5388   89.2071   11.3057 C.ar    1  UNL1        0.1198
     11 N          62.0609   89.8451   10.0526 N.ar    1  UNL1       -0.2219
     12 C          63.1339   90.8188   10.4405 C.ar    1  UNL1        0.1864
@<TRIPOS>BOND
     1     1     2    2
     2     2     3   am
     3     3     4   ar
     4     4     5   ar
     5     5     6   ar
     6     6     7   ar
     7     2     8   am
     8     8     9   ar
     9     9    10   ar
    10    10    11   ar
    11    11    12   ar
    12     7     3   ar
    13    12     8   ar
@<TRIPOS>MOLECULE
*****
 12 13 0 0 0
SMALL
GASTEIGER

@<TRIPOS>ATOM
      1 O          62.9761   85.0710    7.9640 O.2     1  UNL1       -0.2455
      2 C          62.6724   85.2032    9.4270 C.2     1  UNL1        0.3418
      3 N          63.3046   84.2651   10.4120 N.ar    1  UNL1       -0.2390
      4 C          63.0972   84.2754   11.8975 C.ar    1  UNL1        0.1066
      5 C          63.9197   83.1686   12.4880 C.ar    1  UNL1        0.1198
      6 N          64.6354   82.4743   11.3674 N.ar    1  UNL1       -0.2219
      7 C          64.2552   83.1520   10.0843 C.ar    1  UNL1        0.1864
      8 N          61.7365   86.2735    9.9049 N.ar    1  UNL1       -0.2390
      9 C          61.0329   87.2791    9.0425 C.ar    1  UNL1        0.1066
     10 C          60.2014   88.1532    9.9338 C.ar    1  UNL1        0.1198
     11 N          60.3911   87.6880   11.3472 N.ar    1  UNL1       -0.2219
     12 C          61.3398   86.5262   11.3293 C.ar    1  UNL1        0.1864
@<TRIPOS>BOND
     1     1     2    2
     2     2     3   am
     3     3     4   ar
     4     4     5   ar
     5     5     6   ar
     6     6     7   ar
     7     2     8   am
     8     8     9   ar
     9     9    10   ar
    10    10    11   ar
    11    11    12   ar
    12     7     3   ar
    13    12     8   ar
@<TRIPOS>MOLECULE
*****
 12 13 0 0 0
SMALL
GASTEIGER

@<TRIPOS>ATOM
      1 O          64.9580   84.0152   12.9071 O.2     1  UNL1       -0.2455
      2 C          63.8251   83.6968   13.8372 C.2     1  UNL1        0.3418
      3 N          63.4505   84.6633   14.9214 N.ar    1  UNL1       -0.2390
      4 C          62.3470   84.4824   15.9212 C.ar    1  UNL1        0.1066
      5 C          62.3283   85.6877   16.8139 C.ar    1  UNL1        0.1198
      6 N          63.4202   86.6135   16.3658 N.ar    1  UNL1       -0.2219
      7 C          64.1138   85.9803   15.1962 C.ar    1  UNL1        0.1864
      8 N          63.0668   82.4118   13.6831 N.ar    1  UNL1       -0.2390
      9 C          63.3251   81.3537   12.6517 C.ar    1  UNL1        0.1066
     10 C          62.3349   80.2473   12.8645 C.ar    1  UNL1        0.1198
     11 N          61.4646   80.6215   14.0275 N.ar    1  UNL1       -0.2219
     12 C          61.9169   81.9592   14.5334 C.ar    1  UNL1        0.1864
@<TRIPOS>BOND
     1     1     2    2
     2     2     3   am
     3     3     4   ar
     4     4     5   ar
     5     5     6   ar
     6     6     7   ar
     7     2     8   am
     8     8     9   ar
     9     9    10   ar
    10    10    11   ar
    11    11    12   ar
    12     7     3   ar
    13    12     8   ar
@<TRIPOS>MOLECULE
*****
 12 13 0 0 0
SMALL
GASTEIGER

@<TRIPOS>ATOM
      1 O          67.7791   91.9377    9.9084 O.2     1  UNL1       -0.2455
      2 C          67.2694   93.1457   10.6371 C.2     1  UNL1        0.3418
      3 N          67.1759   94.4647    9.9290 N.ar    1  UNL1       -0.2390
      4 C          66.6885   95.7523   10.5243 C.ar    1  UNL1        0.1066
      5 C          66.7648   96.8110    9.4644 C.ar    1  UNL1        0.1198
      6 N          67.2993   96.1777    8.2141 N.ar    1  UNL1       -0.2219
      7 C          67.5534   94.7276    8.5013 C.ar    1  UNL1        0.1864
      8 N          66.8533   93.0346   12.0739 N.ar    1  UNL1       -0.2390
      9 C          66.8904   91.7891   12.9090 C.ar    1  UNL1        0.1066
     10 C          66.3870   92.1343   14.2791 C.ar    1  UNL1        0.1198
     11 N          66.0387   93.5933   14.2910 N.ar    1  UNL1       -0.2219
     12 C          66.3269   94.1497   12.9282 C.ar    1  UNL1        0.1864
@<TRIPOS>BOND
     1     1     2    2
     2     2     3   am
     3     3     4   ar
     4     4     5   ar
     5     5     6   ar
     6     6     7   ar
     7     2     8   am
     8     8     9   ar
     9     9    10   ar
    10    10    11   ar
    11    11    12   ar
    12     7     3   ar
    13    12     8   ar
@<TRIPOS>MOLECULE
*****
 12 13 0 0 0
SMALL
GASTEIGER

@<TRIPOS>ATOM
      1 O          64.9686   83.6816   12.5467 O.2     1  UNL1       -0.2455
      2 C          63.8755   83.4758   13.5531 C.2     1  UNL1        0.3418
      3 N          63.0479   82.2253   13.5163 N.ar    1  UNL1       -0.2390
      4 C          61.9269   81.8821   14.4520 C.ar    1  UNL1        0.1066
      5 C          61.3822   80.5432   14.0513 C.ar    1  UNL1        0.1198
      6 N          62.1667   80.0588   12.8681 N.ar    1  UNL1       -0.2219
      7 C          63.1961   81.0984   12.5374 C.ar    1  UNL1        0.1864
      8 N          63.6100   84.5205   14.5961 N.ar    1  UNL1       -0.2390
      9 C          64.3510   85.8148   14.7565 C.ar    1  UNL1        0.1066
     10 C          63.7557   86.5486   15.9214 C.ar    1  UNL1        0.1198
     11 N          62.6468   85.7078   16.4812 N.ar    1  UNL1       -0.2219
     12 C          62.5567   84.4544   15.6622 C.ar    1  UNL1        0.1864
@<TRIPOS>BOND
     1     1     2    2
     2     2     3   am
     3     3     4   ar
     4     4     5   ar
     5     5     6   ar
     6     6     7   ar
     7     2     8   am
     8     8     9   ar
     9     9    10   ar
    10    10    11   ar
    11    11    12   ar
    12     7     3   ar
    13    12     8   ar
@<TRIPOS>MOLECULE
*****
 12 13 0 0 0
SMALL
GASTEIGER

@<TRIPOS>ATOM
      1 O          64.8043   82.8156   10.3972 O.2     1  UNL1       -0.2455
      2 C          63.7873   83.7141   11.0362 C.2     1  UNL1        0.3418
      3 N          62.9855   84.6594   10.1914 N.ar    1  UNL1       -0.2390
      4 C          61.9387   85.6129   10.6864 C.ar    1  UNL1        0.1066
      5 C          61.3960   86.3598    9.5042 C.ar    1  UNL1        0.1198
      6 N          62.1073   85.8680    8.2787 N.ar    1  UNL1       -0.2219
      7 C          63.0898   84.8170    8.7034 C.ar    1  UNL1        0.1864
      8 N          63.5722   83.6675   12.5199 N.ar    1  UNL1       -0.2390
      9 C          64.2952   82.7789   13.4883 C.ar    1  UNL1        0.1066
     10 C          63.7661   83.0634   14.8626 C.ar    1  UNL1        0.1198
     11 N          62.7160   84.1279   14.7438 N.ar    1  UNL1       -0.2219
     12 C          62.5961   84.5013   13.2960 C.ar    1  UNL1        0.1864
@<TRIPOS>BOND
     1     1     2    2
     2     2     3   am
     3     3     4   ar
     4     4     5   ar
     5     5     6   ar
     6     6     7   ar
     7     2     8   am
     8     8     9   ar
     9     9    10   ar
    10    10    11   ar
    11    11    12   ar
    12     7     3   ar
    13    12     8   ar
