@<TRIPOS>MOLECULE
*****
 29 32 0 0 0
SMALL
GASTEIGER

@<TRIPOS>ATOM
      1 C          61.8336   89.7696    9.8260 C.3     1  UNL1        0.0041
      2 C          61.5535   88.3086   10.0182 C.3     1  UNL1        0.0179
      3 C          60.9704   89.0358    8.8430 C.3     1  UNL1        0.0119
      4 C          60.1072   88.3019    7.8600 C.3     1  UNL1        0.0694
      5 C          59.8270   86.8409    8.0522 C.2     1  UNL1        0.1725
      6 O          58.9638   86.1071    7.0692 O.2     1  UNL1       -0.2914
      7 C          60.4101   86.1137    9.2274 C.2     1  UNL1        0.0289
      8 C          61.2734   86.8476   10.2104 C.2     1  UNL1       -0.0419
      9 C          61.8565   86.1204   11.3857 C.3     1  UNL1        0.0221
     10 C          62.7198   86.8542   12.3687 C.3     1  UNL1        0.0044
     11 C          62.9999   88.3152   12.1764 C.3     1  UNL1        0.0030
     12 C          62.4168   89.0424   11.0012 C.3     1  UNL1        0.0304
     13 C          62.6969   90.5034   10.8090 C.3     1  UNL1        0.1108
     14 O          62.1138   91.2306    9.6337 O.3     1  UNL1       -0.3845
     15 C          63.5602   91.2373   11.7920 C.3     1  UNL1        0.0319
     16 C          64.1433   90.5101   12.9673 C.3     1  UNL1        0.0313
     17 C          64.4088   91.9708   12.7532 C.3     1  UNL1        0.0028
     18 C          63.8632   89.0490   13.1595 C.3     1  UNL1        0.0028
     19 C          64.5708   88.6012   14.4039 C.3     1  UNL1        0.0029
     20 C          65.2882   89.7855   14.9808 C.3     1  UNL1        0.0342
     21 C          65.0240   90.9652   14.0929 C.3     1  UNL1        0.1413
     22 O          65.0478   92.3613   13.5448 O.3     1  UNL1       -0.3797
     23 H          61.5856   90.6148    9.1021 H       1  UNL1        0.2103
     24 H          65.5897   92.9248   14.1189 H       1  UNL1        0.2108
     25 C          65.8873   91.6990   15.0759 C.2     1  UNL1        0.2038
     26 O          65.2574   92.4703   16.1977 O.2     1  UNL1       -0.2910
     27 C          67.3804   91.6614   14.9372 C.3     1  UNL1        0.2044
     28 O          68.0452   92.3662   13.7920 O.3     1  UNL1       -0.3749
     29 H          67.7940   91.9376   12.9589 H       1  UNL1        0.2110
@<TRIPOS>BOND
     1     2     1    1
     2     2     3    1
     3     3     4    1
     4     4     5    1
     5     5     6    2
     6     5     7    1
     7     7     8    2
     8     8     9    1
     9     9    10    1
    10    11    10    1
    11    11    12    1
    12    12    13    1
    13    13    14    1
    14    13    15    1
    15    15    16    1
    16    16    17    1
    17    16    18    1
    18    18    19    1
    19    19    20    1
    20    20    21    1
    21    21    22    1
    22    21    25    1
    23    25    26    2
    24    25    27    1
    25    27    28    1
    26     8     2    1
    27    18    11    1
    28    12     2    1
    29    21    16    1
    30    14    23    1
    31    22    24    1
    32    28    29    1
@<TRIPOS>MOLECULE
*****
 29 32 0 0 0
SMALL
GASTEIGER

@<TRIPOS>ATOM
      1 C          64.0146   84.2647   14.2610 C.3     1  UNL1        0.0041
      2 C          63.3233   83.7972   13.0146 C.3     1  UNL1        0.0179
      3 C          63.8133   82.7979   14.0201 C.3     1  UNL1        0.0119
      4 C          63.6121   81.3312   13.7793 C.3     1  UNL1        0.0694
      5 C          62.9207   80.8637   12.5329 C.2     1  UNL1        0.1725
      6 O          62.7195   79.3968   12.2920 O.2     1  UNL1       -0.2914
      7 C          62.4306   81.8630   11.5273 C.2     1  UNL1        0.0289
      8 C          62.6319   83.3298   11.7682 C.2     1  UNL1       -0.0419
      9 C          62.1418   84.3291   10.7626 C.3     1  UNL1        0.0221
     10 C          62.3431   85.7959   11.0034 C.3     1  UNL1        0.0044
     11 C          63.0344   86.2634   12.2499 C.3     1  UNL1        0.0030
     12 C          63.5245   85.2641   13.2554 C.3     1  UNL1        0.0304
     13 C          64.2159   85.7315   14.5018 C.3     1  UNL1        0.1108
     14 O          64.7059   84.7321   15.5074 O.3     1  UNL1       -0.3845
     15 C          64.4171   87.1983   14.7427 C.3     1  UNL1        0.0319
     16 C          63.9270   88.1977   13.7371 C.3     1  UNL1        0.0313
     17 C          64.6212   88.6401   14.9911 C.3     1  UNL1        0.0028
     18 C          63.2357   87.7302   12.4907 C.3     1  UNL1        0.0028
     19 C          62.8635   88.9398   11.6857 C.3     1  UNL1        0.0029
     20 C          63.3248   90.1549   12.4345 C.3     1  UNL1        0.0342
     21 C          63.9821   89.6962   13.7024 C.3     1  UNL1        0.1413
     22 O          64.6920   89.7270   15.0234 O.3     1  UNL1       -0.3797
     23 H          64.4974   83.8359   15.2006 H       1  UNL1        0.2103
     24 H          64.8710   90.6471   15.2729 H       1  UNL1        0.2108
     25 C          64.1833   91.1630   13.9432 C.2     1  UNL1        0.2038
     26 O          63.5878   91.8124   15.1572 O.2     1  UNL1       -0.2910
     27 C          64.9801   91.9804   12.9701 C.3     1  UNL1        0.2044
     28 O          65.8446   93.1023   13.4642 O.3     1  UNL1       -0.3749
     29 H          65.2855   93.7991   13.8419 H       1  UNL1        0.2110
@<TRIPOS>BOND
     1     2     1    1
     2     2     3    1
     3     3     4    1
     4     4     5    1
     5     5     6    2
     6     5     7    1
     7     7     8    2
     8     8     9    1
     9     9    10    1
    10    11    10    1
    11    11    12    1
    12    12    13    1
    13    13    14    1
    14    13    15    1
    15    15    16    1
    16    16    17    1
    17    16    18    1
    18    18    19    1
    19    19    20    1
    20    20    21    1
    21    21    22    1
    22    21    25    1
    23    25    26    2
    24    25    27    1
    25    27    28    1
    26     8     2    1
    27    18    11    1
    28    12     2    1
    29    21    16    1
    30    14    23    1
    31    22    24    1
    32    28    29    1
@<TRIPOS>MOLECULE
*****
 29 32 0 0 0
SMALL
GASTEIGER

@<TRIPOS>ATOM
      1 C          64.3071   91.8685   11.5360 C.3     1  UNL1        0.0041
      2 C          64.8020   91.3279   12.8448 C.3     1  UNL1        0.0179
      3 C          65.2534   92.6780   12.3722 C.3     1  UNL1        0.0119
      4 C          66.1998   93.4875   13.2083 C.3     1  UNL1        0.0694
      5 C          66.6947   92.9468   14.5170 C.2     1  UNL1        0.1725
      6 O          67.6411   93.7564   15.3532 O.2     1  UNL1       -0.2914
      7 C          66.2432   91.5968   14.9896 C.2     1  UNL1        0.0289
      8 C          65.2969   90.7873   14.1535 C.2     1  UNL1       -0.0419
      9 C          64.8454   89.4371   14.6261 C.3     1  UNL1        0.0221
     10 C          63.8990   88.6277   13.7900 C.3     1  UNL1        0.0044
     11 C          63.4041   89.1683   12.4813 C.3     1  UNL1        0.0030
     12 C          63.8556   90.5184   12.0086 C.3     1  UNL1        0.0304
     13 C          63.3607   91.0590   10.6999 C.3     1  UNL1        0.1108
     14 O          63.8122   92.4092   10.2273 O.3     1  UNL1       -0.3845
     15 C          62.4143   90.2495    9.8638 C.3     1  UNL1        0.0319
     16 C          61.9628   88.8994   10.3364 C.3     1  UNL1        0.0313
     17 C          61.4821   89.4618    9.0315 C.3     1  UNL1        0.0028
     18 C          62.4577   88.3588   11.6451 C.3     1  UNL1        0.0028
     19 C          61.8431   87.0060   11.8499 C.3     1  UNL1        0.0029
     20 C          60.9684   86.7104   10.6678 C.3     1  UNL1        0.0342
     21 C          61.0424   87.8807    9.7324 C.3     1  UNL1        0.1413
     22 O          60.8050   88.7622    8.5421 O.3     1  UNL1       -0.3797
     23 H          64.4168   92.7948   10.8804 H       1  UNL1        0.2103
     24 H          60.1951   88.3216    7.9300 H       1  UNL1        0.2108
     25 C          60.0960   87.0711    8.8962 C.2     1  UNL1        0.2038
     26 O          58.6295   87.3864    8.9054 O.2     1  UNL1       -0.2910
     27 C          60.6161   85.9464    8.0510 C.3     1  UNL1        0.2044
     28 O          59.7109   85.2679    7.0659 O.3     1  UNL1       -0.3749
     29 H          59.0068   84.8008    7.5423 H       1  UNL1        0.2110
@<TRIPOS>BOND
     1     2     1    1
     2     2     3    1
     3     3     4    1
     4     4     5    1
     5     5     6    2
     6     5     7    1
     7     7     8    2
     8     8     9    1
     9     9    10    1
    10    11    10    1
    11    11    12    1
    12    12    13    1
    13    13    14    1
    14    13    15    1
    15    15    16    1
    16    16    17    1
    17    16    18    1
    18    18    19    1
    19    19    20    1
    20    20    21    1
    21    21    22    1
    22    21    25    1
    23    25    26    2
    24    25    27    1
    25    27    28    1
    26     8     2    1
    27    18    11    1
    28    12     2    1
    29    21    16    1
    30    14    23    1
    31    22    24    1
    32    28    29    1
@<TRIPOS>MOLECULE
*****
 29 32 0 0 0
SMALL
GASTEIGER

@<TRIPOS>ATOM
      1 C          65.2948   90.5888   14.4686 C.3     1  UNL1        0.0041
      2 C          65.7575   91.8914   13.8864 C.3     1  UNL1        0.0179
      3 C          66.2557   91.4519   15.2312 C.3     1  UNL1        0.0119
      4 C          67.2166   92.3150   15.9939 C.3     1  UNL1        0.0694
      5 C          67.6793   93.6177   15.4117 C.2     1  UNL1        0.1725
      6 O          68.6402   94.4808   16.1744 O.2     1  UNL1       -0.2914
      7 C          67.1812   94.0572   14.0668 C.2     1  UNL1        0.0289
      8 C          66.2203   93.1941   13.3042 C.2     1  UNL1       -0.0419
      9 C          65.7221   93.6336   11.9593 C.3     1  UNL1        0.0221
     10 C          64.7612   92.7704   11.1966 C.3     1  UNL1        0.0044
     11 C          64.2985   91.4678   11.7788 C.3     1  UNL1        0.0030
     12 C          64.7966   91.0283   13.1237 C.3     1  UNL1        0.0304
     13 C          64.3339   89.7256   13.7059 C.3     1  UNL1        0.1108
     14 O          64.8320   89.2861   15.0508 O.3     1  UNL1       -0.3845
     15 C          63.3730   88.8625   12.9432 C.3     1  UNL1        0.0319
     16 C          62.8748   89.3020   11.5983 C.3     1  UNL1        0.0313
     17 C          62.4269   88.0038   12.2018 C.3     1  UNL1        0.0028
     18 C          63.3375   90.6046   11.0161 C.3     1  UNL1        0.0028
     19 C          62.6794   90.7746    9.6790 C.3     1  UNL1        0.0029
     20 C          61.8099   89.5770    9.4348 C.3     1  UNL1        0.0342
     21 C          61.9307   88.6669   10.6210 C.3     1  UNL1        0.1413
     22 O          61.7344   87.4926   11.5335 O.3     1  UNL1       -0.3797
     23 H          65.4405   89.9537   15.4042 H       1  UNL1        0.2103
     24 H          61.1185   86.8647   11.1245 H       1  UNL1        0.2108
     25 C          60.9698   87.8037    9.8583 C.2     1  UNL1        0.2038
     26 O          59.4945   87.9308   10.0981 O.2     1  UNL1       -0.2910
     27 C          61.4841   86.8135    8.8559 C.3     1  UNL1        0.2044
     28 O          62.6035   85.8855    9.2246 O.3     1  UNL1       -0.3749
     29 H          63.4126   86.3988    9.3756 H       1  UNL1        0.2110
@<TRIPOS>BOND
     1     2     1    1
     2     2     3    1
     3     3     4    1
     4     4     5    1
     5     5     6    2
     6     5     7    1
     7     7     8    2
     8     8     9    1
     9     9    10    1
    10    11    10    1
    11    11    12    1
    12    12    13    1
    13    13    14    1
    14    13    15    1
    15    15    16    1
    16    16    17    1
    17    16    18    1
    18    18    19    1
    19    19    20    1
    20    20    21    1
    21    21    22    1
    22    21    25    1
    23    25    26    2
    24    25    27    1
    25    27    28    1
    26     8     2    1
    27    18    11    1
    28    12     2    1
    29    21    16    1
    30    14    23    1
    31    22    24    1
    32    28    29    1
@<TRIPOS>MOLECULE
*****
 29 32 0 0 0
SMALL
GASTEIGER

@<TRIPOS>ATOM
      1 C          63.0736   88.5857   12.5370 C.3     1  UNL1        0.0041
      2 C          62.5543   89.2008   11.2713 C.3     1  UNL1        0.0179
      3 C          62.0512   87.8590   11.7146 C.3     1  UNL1        0.0119
      4 C          61.0287   87.1323   10.8922 C.3     1  UNL1        0.0694
      5 C          60.5093   87.7474    9.6265 C.2     1  UNL1        0.1725
      6 O          59.4868   87.0206    8.8041 O.2     1  UNL1       -0.2914
      7 C          61.0125   89.0891    9.1832 C.2     1  UNL1        0.0289
      8 C          62.0349   89.8158   10.0056 C.2     1  UNL1       -0.0419
      9 C          62.5381   91.1576    9.5624 C.3     1  UNL1        0.0221
     10 C          63.5606   91.8843   10.3848 C.3     1  UNL1        0.0044
     11 C          64.0799   91.2693   11.6505 C.3     1  UNL1        0.0030
     12 C          63.5768   89.9275   12.0938 C.3     1  UNL1        0.0304
     13 C          64.0962   89.3125   13.3595 C.3     1  UNL1        0.1108
     14 O          63.5930   87.9707   13.8027 O.3     1  UNL1       -0.3845
     15 C          65.1186   90.0392   14.1819 C.3     1  UNL1        0.0319
     16 C          65.6218   91.3810   13.7386 C.3     1  UNL1        0.0313
     17 C          66.1256   90.7451   15.0003 C.3     1  UNL1        0.0028
     18 C          65.1025   91.9960   12.4729 C.3     1  UNL1        0.0028
     19 C          65.7797   93.3218   12.2900 C.3     1  UNL1        0.0029
     20 C          66.7176   93.5262   13.4426 C.3     1  UNL1        0.0342
     21 C          66.6200   92.3267   14.3379 C.3     1  UNL1        0.1413
     22 O          66.8591   91.3894   15.4843 O.3     1  UNL1       -0.3797
     23 H          62.9418   87.6421   13.1633 H       1  UNL1        0.2103
     24 H          67.5168   91.7740   16.0846 H       1  UNL1        0.2108
     25 C          67.6425   93.0535   15.1603 C.2     1  UNL1        0.2038
     26 O          67.2161   93.8360   16.3669 O.2     1  UNL1       -0.2910
     27 C          69.0914   92.9977   14.7761 C.3     1  UNL1        0.2044
     28 O          69.5652   91.9787   13.7825 O.3     1  UNL1       -0.3749
     29 H          69.4622   91.0898   14.1568 H       1  UNL1        0.2110
@<TRIPOS>BOND
     1     2     1    1
     2     2     3    1
     3     3     4    1
     4     4     5    1
     5     5     6    2
     6     5     7    1
     7     7     8    2
     8     8     9    1
     9     9    10    1
    10    11    10    1
    11    11    12    1
    12    12    13    1
    13    13    14    1
    14    13    15    1
    15    15    16    1
    16    16    17    1
    17    16    18    1
    18    18    19    1
    19    19    20    1
    20    20    21    1
    21    21    22    1
    22    21    25    1
    23    25    26    2
    24    25    27    1
    25    27    28    1
    26     8     2    1
    27    18    11    1
    28    12     2    1
    29    21    16    1
    30    14    23    1
    31    22    24    1
    32    28    29    1
@<TRIPOS>MOLECULE
*****
 29 32 0 0 0
SMALL
GASTEIGER

@<TRIPOS>ATOM
      1 C          63.5206   87.6671   13.2099 C.3     1  UNL1        0.0041
      2 C          63.0780   87.9749   11.8101 C.3     1  UNL1        0.0179
      3 C          63.5229   89.0837   12.7170 C.3     1  UNL1        0.0119
      4 C          63.5251   90.5004   12.2241 C.3     1  UNL1        0.0694
      5 C          63.0826   90.8082   10.8243 C.2     1  UNL1        0.1725
      6 O          63.0849   92.2249   10.3314 O.2     1  UNL1       -0.2914
      7 C          62.6377   89.6993    9.9174 C.2     1  UNL1        0.0289
      8 C          62.6354   88.2827   10.4104 C.2     1  UNL1       -0.0419
      9 C          62.1905   87.1737    9.5035 C.3     1  UNL1        0.0221
     10 C          62.1883   85.7570    9.9964 C.3     1  UNL1        0.0044
     11 C          62.6308   85.4492   11.3962 C.3     1  UNL1        0.0030
     12 C          63.0757   86.5581   12.3030 C.3     1  UNL1        0.0304
     13 C          63.5183   86.2503   13.7028 C.3     1  UNL1        0.1108
     14 O          63.9632   87.3593   14.6097 O.3     1  UNL1       -0.3845
     15 C          63.5160   84.8336   14.1957 C.3     1  UNL1        0.0319
     16 C          63.0711   83.7247   13.2889 C.3     1  UNL1        0.0313
     17 C          63.5182   83.4425   14.6926 C.3     1  UNL1        0.0028
     18 C          62.6285   84.0325   11.8891 C.3     1  UNL1        0.0028
     19 C          62.2463   82.7409   11.2293 C.3     1  UNL1        0.0029
     20 C          62.4526   81.6348   12.2212 C.3     1  UNL1        0.0342
     21 C          62.9624   82.2429   13.4941 C.3     1  UNL1        0.1413
     22 O          63.4611   82.3748   14.9026 O.3     1  UNL1       -0.3797
     23 H          63.9041   88.2053   14.1389 H       1  UNL1        0.2103
     24 H          63.4969   81.4982   15.3164 H       1  UNL1        0.2108
     25 C          62.9601   80.8261   13.9870 C.2     1  UNL1        0.2038
     26 O          64.2427   80.1812   14.4216 O.2     1  UNL1       -0.2910
     27 C          61.6752   80.0544   14.0452 C.3     1  UNL1        0.2044
     28 O          60.3945   80.7549   14.3904 O.3     1  UNL1       -0.3749
     29 H          60.4356   81.0711   15.3065 H       1  UNL1        0.2110
@<TRIPOS>BOND
     1     2     1    1
     2     2     3    1
     3     3     4    1
     4     4     5    1
     5     5     6    2
     6     5     7    1
     7     7     8    2
     8     8     9    1
     9     9    10    1
    10    11    10    1
    11    11    12    1
    12    12    13    1
    13    13    14    1
    14    13    15    1
    15    15    16    1
    16    16    17    1
    17    16    18    1
    18    18    19    1
    19    19    20    1
    20    20    21    1
    21    21    22    1
    22    21    25    1
    23    25    26    2
    24    25    27    1
    25    27    28    1
    26     8     2    1
    27    18    11    1
    28    12     2    1
    29    21    16    1
    30    14    23    1
    31    22    24    1
    32    28    29    1
@<TRIPOS>MOLECULE
*****
 29 32 0 0 0
SMALL
GASTEIGER

@<TRIPOS>ATOM
      1 C          62.5334   84.4501   11.7497 C.3     1  UNL1        0.0041
      2 C          63.0427   83.7227   12.9587 C.3     1  UNL1        0.0179
      3 C          62.4035   82.9583   11.8375 C.3     1  UNL1        0.0119
      4 C          62.2736   81.4666   11.9253 C.3     1  UNL1        0.0694
      5 C          62.7828   80.7392   13.1342 C.2     1  UNL1        0.1725
      6 O          62.6529   79.2474   13.2219 O.2     1  UNL1       -0.2914
      7 C          63.4221   81.5036   14.2554 C.2     1  UNL1        0.0289
      8 C          63.5520   82.9953   14.1676 C.2     1  UNL1       -0.0419
      9 C          64.1913   83.7598   15.2888 C.3     1  UNL1        0.0221
     10 C          64.3212   85.2515   15.2011 C.3     1  UNL1        0.0044
     11 C          63.8119   85.9789   13.9921 C.3     1  UNL1        0.0030
     12 C          63.1727   85.2145   12.8709 C.3     1  UNL1        0.0304
     13 C          62.6634   85.9419   11.6620 C.3     1  UNL1        0.1108
     14 O          62.0241   85.1775   10.5408 O.3     1  UNL1       -0.3845
     15 C          62.7934   87.4337   11.5742 C.3     1  UNL1        0.0319
     16 C          63.4326   88.1981   12.6954 C.3     1  UNL1        0.0313
     17 C          62.9156   88.9026   11.4762 C.3     1  UNL1        0.0028
     18 C          63.9419   87.4707   13.9044 C.3     1  UNL1        0.0028
     19 C          64.5216   88.4848   14.8454 C.3     1  UNL1        0.0029
     20 C          64.3706   89.8389   14.2181 C.3     1  UNL1        0.0342
     21 C          63.6976   89.6617   12.8893 C.3     1  UNL1        0.1413
     22 O          63.0807   89.9765   11.5587 O.3     1  UNL1       -0.3797
     23 H          62.0199   84.2316   10.7556 H       1  UNL1        0.2103
     24 H          63.1159   90.9335   11.4043 H       1  UNL1        0.2108
     25 C          63.8275   91.1535   12.8016 C.2     1  UNL1        0.2038
     26 O          62.6334   91.9911   12.4515 O.2     1  UNL1       -0.2910
     27 C          65.1516   91.8077   13.0640 C.3     1  UNL1        0.2044
     28 O          65.3845   93.2270   12.6378 O.3     1  UNL1       -0.3749
     29 H          65.3658   93.2810   11.6695 H       1  UNL1        0.2110
@<TRIPOS>BOND
     1     2     1    1
     2     2     3    1
     3     3     4    1
     4     4     5    1
     5     5     6    2
     6     5     7    1
     7     7     8    2
     8     8     9    1
     9     9    10    1
    10    11    10    1
    11    11    12    1
    12    12    13    1
    13    13    14    1
    14    13    15    1
    15    15    16    1
    16    16    17    1
    17    16    18    1
    18    18    19    1
    19    19    20    1
    20    20    21    1
    21    21    22    1
    22    21    25    1
    23    25    26    2
    24    25    27    1
    25    27    28    1
    26     8     2    1
    27    18    11    1
    28    12     2    1
    29    21    16    1
    30    14    23    1
    31    22    24    1
    32    28    29    1
@<TRIPOS>MOLECULE
*****
 29 32 0 0 0
SMALL
GASTEIGER

@<TRIPOS>ATOM
      1 C          62.8034   87.6004   11.5407 C.3     1  UNL1        0.0041
      2 C          63.5010   88.2654   12.6901 C.3     1  UNL1        0.0179
      3 C          63.0434   89.0808   11.5173 C.3     1  UNL1        0.0119
      4 C          63.2834   90.5613   11.4939 C.3     1  UNL1        0.0694
      5 C          63.9810   91.2263   12.6433 C.2     1  UNL1        0.1725
      6 O          64.2209   92.7068   12.6199 O.2     1  UNL1       -0.2914
      7 C          64.4386   90.4108   13.8161 C.2     1  UNL1        0.0289
      8 C          64.1986   88.9304   13.8395 C.2     1  UNL1       -0.0419
      9 C          64.6563   88.1148   15.0124 C.3     1  UNL1        0.0221
     10 C          64.4163   86.6343   15.0358 C.3     1  UNL1        0.0044
     11 C          63.7187   85.9693   13.8864 C.3     1  UNL1        0.0030
     12 C          63.2611   86.7848   12.7136 C.3     1  UNL1        0.0304
     13 C          62.5635   86.1198   11.5642 C.3     1  UNL1        0.1108
     14 O          62.1058   86.9354   10.3913 O.3     1  UNL1       -0.3845
     15 C          62.3235   84.6394   11.5876 C.3     1  UNL1        0.0319
     16 C          62.7811   83.8238   12.7604 C.3     1  UNL1        0.0313
     17 C          62.0814   83.1821   11.5990 C.3     1  UNL1        0.0028
     18 C          63.4787   84.4888   13.9098 C.3     1  UNL1        0.0028
     19 C          63.8138   83.4336   14.9218 C.3     1  UNL1        0.0029
     20 C          63.3233   82.1165   14.3979 C.3     1  UNL1        0.0342
     21 C          62.6851   82.3577   13.0621 C.3     1  UNL1        0.1413
     22 O          61.9812   82.1092   11.7609 O.3     1  UNL1       -0.3797
     23 H          62.3372   87.8664   10.5349 H       1  UNL1        0.2103
     24 H          61.7785   81.1643   11.6783 H       1  UNL1        0.2108
     25 C          62.4451   80.8771   13.0855 C.2     1  UNL1        0.2038
     26 O          63.1071   79.9939   12.0698 O.2     1  UNL1       -0.2910
     27 C          61.5432   80.2799   14.1246 C.3     1  UNL1        0.2044
     28 O          60.1218   80.7448   14.2408 O.3     1  UNL1       -0.3749
     29 H          60.1071   81.6717   14.5264 H       1  UNL1        0.2110
@<TRIPOS>BOND
     1     2     1    1
     2     2     3    1
     3     3     4    1
     4     4     5    1
     5     5     6    2
     6     5     7    1
     7     7     8    2
     8     8     9    1
     9     9    10    1
    10    11    10    1
    11    11    12    1
    12    12    13    1
    13    13    14    1
    14    13    15    1
    15    15    16    1
    16    16    17    1
    17    16    18    1
    18    18    19    1
    19    19    20    1
    20    20    21    1
    21    21    22    1
    22    21    25    1
    23    25    26    2
    24    25    27    1
    25    27    28    1
    26     8     2    1
    27    18    11    1
    28    12     2    1
    29    21    16    1
    30    14    23    1
    31    22    24    1
    32    28    29    1
@<TRIPOS>MOLECULE
*****
 29 32 0 0 0
SMALL
GASTEIGER

@<TRIPOS>ATOM
      1 C          61.0386   86.5649    9.4699 C.3     1  UNL1        0.0041
      2 C          60.9075   88.0489    9.2947 C.3     1  UNL1        0.0179
      3 C          60.2495   87.1176    8.3202 C.3     1  UNL1        0.0119
      4 C          59.4605   87.6703    7.1705 C.3     1  UNL1        0.0694
      5 C          59.3295   89.1543    6.9953 C.2     1  UNL1        0.1725
      6 O          58.5404   89.7070    5.8455 O.2     1  UNL1       -0.2914
      7 C          59.9875   90.0855    7.9698 C.2     1  UNL1        0.0289
      8 C          60.7765   89.5328    9.1195 C.2     1  UNL1       -0.0419
      9 C          61.4346   90.4641   10.0941 C.3     1  UNL1        0.0221
     10 C          62.2236   89.9114   11.2438 C.3     1  UNL1        0.0044
     11 C          62.3546   88.4274   11.4190 C.3     1  UNL1        0.0030
     12 C          61.6966   87.4962   10.4445 C.3     1  UNL1        0.0304
     13 C          61.8277   86.0122   10.6197 C.3     1  UNL1        0.1108
     14 O          61.1696   85.0810    9.6451 O.3     1  UNL1       -0.3845
     15 C          62.6167   85.4595   11.7694 C.3     1  UNL1        0.0319
     16 C          63.2747   86.3908   12.7440 C.3     1  UNL1        0.0313
     17 C          63.3911   84.9032   12.8977 C.3     1  UNL1        0.0028
     18 C          63.1437   87.8748   12.5688 C.3     1  UNL1        0.0028
     19 C          63.8977   88.5412   13.6811 C.3     1  UNL1        0.0029
     20 C          64.4948   87.4691   14.5437 C.3     1  UNL1        0.0342
     21 C          64.1097   86.1401   13.9646 C.3     1  UNL1        0.1413
     22 O          63.9908   84.6571   13.7736 O.3     1  UNL1       -0.3797
     23 H          60.7039   85.5971    8.9687 H       1  UNL1        0.2103
     24 H          64.4756   84.2003   14.4787 H       1  UNL1        0.2108
     25 C          64.8988   85.5874   15.1144 C.2     1  UNL1        0.2038
     26 O          66.3618   85.2996   14.9504 O.2     1  UNL1       -0.2910
     27 C          64.2249   85.3226   16.4280 C.3     1  UNL1        0.2044
     28 O          62.7282   85.2563   16.5033 O.3     1  UNL1       -0.3749
     29 H          62.3554   86.1290   16.3026 H       1  UNL1        0.2110
@<TRIPOS>BOND
     1     2     1    1
     2     2     3    1
     3     3     4    1
     4     4     5    1
     5     5     6    2
     6     5     7    1
     7     7     8    2
     8     8     9    1
     9     9    10    1
    10    11    10    1
    11    11    12    1
    12    12    13    1
    13    13    14    1
    14    13    15    1
    15    15    16    1
    16    16    17    1
    17    16    18    1
    18    18    19    1
    19    19    20    1
    20    20    21    1
    21    21    22    1
    22    21    25    1
    23    25    26    2
    24    25    27    1
    25    27    28    1
    26     8     2    1
    27    18    11    1
    28    12     2    1
    29    21    16    1
    30    14    23    1
    31    22    24    1
    32    28    29    1
