@<TRIPOS>MOLECULE
*****
 32 36 0 0 0
SMALL
GASTEIGER

@<TRIPOS>ATOM
      1 C          64.9999   91.8484   12.9728 C.3     1  UNL1        0.0719
      2 C          65.9225   91.3029   14.0222 C.3     1  UNL1        0.0197
      3 C          65.5529   90.0573   14.7716 C.3     1  UNL1        0.0041
      4 C          64.2607   89.3571   14.4717 C.3     1  UNL1        0.0271
      5 C          63.3381   89.9025   13.4223 C.3     1  UNL1        0.0041
      6 C          63.7077   91.1482   12.6728 C.3     1  UNL1        0.0197
      7 O          66.8718   91.6921   10.6336 O.2     1  UNL1       -0.2701
      8 C          66.3054   93.0159   11.0537 C.2     1  UNL1        0.2458
      9 N          65.3695   93.0941   12.2233 N.am    1  UNL1       -0.3025
     10 H          64.9977   93.9630   12.4991 H       1  UNL1        0.1497
     11 C          66.6749   94.2617   10.3043 C.ar    1  UNL1        0.0534
     12 C          66.4543   95.6068   10.9304 C.ar    1  UNL1        0.0045
     13 C          66.8238   96.8526   10.1811 C.ar    1  UNL1        0.0001
     14 C          67.4138   96.7532    8.8056 C.ar    1  UNL1        0.0000
     15 C          67.6343   95.4080    8.1794 C.ar    1  UNL1        0.0001
     16 C          67.2648   94.1623    8.9288 C.ar    1  UNL1        0.0045
     17 C          63.8911   88.1114   15.2211 C.3     1  UNL1        0.1127
     18 O          62.8869   88.1755   16.3336 O.3     1  UNL1       -0.3844
     19 H          62.7637   87.2898   16.7094 H       1  UNL1        0.2103
     20 C          64.5256   86.8015   14.8581 C.3     1  UNL1        0.0564
     21 C          63.8142   85.8525   13.9397 C.3     1  UNL1        0.1119
     22 C          63.1498   86.2112   12.6436 C.ar    1  UNL1       -0.0002
     23 C          63.0000   87.5166   11.9202 C.ar    1  UNL1       -0.0024
     24 C          62.2677   87.5694   10.6122 C.ar    1  UNL1       -0.0003
     25 C          61.6851   86.3168   10.0277 C.ar    1  UNL1        0.0000
     26 C          61.8349   85.0114   10.7512 C.ar    1  UNL1        0.0012
     27 C          62.5673   84.9586   12.0591 C.ar    1  UNL1        0.0152
     28 C          62.8717   83.8258   12.9940 C.ar    1  UNL1        0.0804
     29 C          62.6998   82.3514   13.2106 C.ar    1  UNL1        0.1177
     30 N          63.3642   81.9928   14.5067 N.ar    1  UNL1       -0.2223
     31 C          63.9468   83.2454   15.0912 C.ar    1  UNL1        0.1788
     32 N          63.6424   84.3782   14.1563 N.ar    1  UNL1       -0.3069
@<TRIPOS>BOND
     1     7     8    2
     2     8     9   am
     3     1     9    1
     4     1     2    1
     5     2     3    1
     6     3     4    1
     7     4    17    1
     8    17    18    1
     9    17    20    1
    10    20    21    1
    11    21    22    1
    12    22    23   ar
    13    23    24   ar
    14    24    25   ar
    15    25    26   ar
    16    26    27   ar
    17    27    28    1
    18    28    29   ar
    19    29    30   ar
    20    30    31   ar
    21    31    32   ar
    22     4     5    1
    23     5     6    1
    24     8    11    1
    25    11    12   ar
    26    12    13   ar
    27    13    14   ar
    28    14    15   ar
    29    15    16   ar
    30     6     1    1
    31    16    11   ar
    32    32    21    1
    33    27    22   ar
    34    32    28   ar
    35     9    10    1
    36    18    19    1
@<TRIPOS>MOLECULE
*****
 32 36 0 0 0
SMALL
GASTEIGER

@<TRIPOS>ATOM
      1 C          63.6225   86.2512   15.4611 C.3     1  UNL1        0.0719
      2 C          64.4772   86.9687   14.4589 C.3     1  UNL1        0.0197
      3 C          64.6528   88.4556   14.5507 C.3     1  UNL1        0.0041
      4 C          63.9737   89.2248   15.6448 C.3     1  UNL1        0.0271
      5 C          63.1190   88.5073   16.6471 C.3     1  UNL1        0.0041
      6 C          62.9434   87.0204   16.5552 C.3     1  UNL1        0.0197
      7 O          62.3761   85.0358   13.0178 O.2     1  UNL1       -0.2701
      8 C          62.8237   84.1566   14.1477 C.2     1  UNL1        0.2458
      9 N          63.4469   84.7643   15.3693 N.am    1  UNL1       -0.3025
     10 H          63.7406   84.1872   16.1109 H       1  UNL1        0.1497
     11 C          62.6481   82.6698   14.0560 C.ar    1  UNL1        0.0534
     12 C          61.2939   82.0602   14.2667 C.ar    1  UNL1        0.0045
     13 C          61.1182   80.5733   14.1750 C.ar    1  UNL1        0.0001
     14 C          62.2968   79.6961   13.8726 C.ar    1  UNL1        0.0000
     15 C          63.6511   80.3057   13.6619 C.ar    1  UNL1        0.0001
     16 C          63.8267   81.7926   13.7536 C.ar    1  UNL1        0.0045
     17 C          64.1493   90.7117   15.7367 C.3     1  UNL1        0.1127
     18 O          63.2531   91.5191   16.6283 O.3     1  UNL1       -0.3844
     19 H          63.4990   92.4556   16.5713 H       1  UNL1        0.2103
     20 C          65.2211   91.3912   14.9369 C.3     1  UNL1        0.0564
     21 C          64.9704   91.7551   13.5034 C.3     1  UNL1        0.1119
     22 C          64.0067   91.0750   12.5768 C.ar    1  UNL1       -0.0002
     23 C          63.0717   89.9186   12.7731 C.ar    1  UNL1       -0.0024
     24 C          62.2102   89.4497   11.6383 C.ar    1  UNL1       -0.0003
     25 C          62.2837   90.1372   10.3071 C.ar    1  UNL1        0.0000
     26 C          63.2186   91.2936   10.1108 C.ar    1  UNL1        0.0012
     27 C          64.0801   91.7625   11.2456 C.ar    1  UNL1        0.0152
     28 C          65.0892   92.8674   11.3496 C.ar    1  UNL1        0.0804
     29 C          65.7583   93.9753   10.5912 C.ar    1  UNL1        0.1177
     30 N          66.7221   94.6553   11.5179 N.ar    1  UNL1       -0.2223
     31 C          66.6487   93.9678   12.8491 C.ar    1  UNL1        0.1788
     32 N          65.6395   92.8628   12.7450 N.ar    1  UNL1       -0.3069
@<TRIPOS>BOND
     1     7     8    2
     2     8     9   am
     3     1     9    1
     4     1     2    1
     5     2     3    1
     6     3     4    1
     7     4    17    1
     8    17    18    1
     9    17    20    1
    10    20    21    1
    11    21    22    1
    12    22    23   ar
    13    23    24   ar
    14    24    25   ar
    15    25    26   ar
    16    26    27   ar
    17    27    28    1
    18    28    29   ar
    19    29    30   ar
    20    30    31   ar
    21    31    32   ar
    22     4     5    1
    23     5     6    1
    24     8    11    1
    25    11    12   ar
    26    12    13   ar
    27    13    14   ar
    28    14    15   ar
    29    15    16   ar
    30     6     1    1
    31    16    11   ar
    32    32    21    1
    33    27    22   ar
    34    32    28   ar
    35     9    10    1
    36    18    19    1
@<TRIPOS>MOLECULE
*****
 32 36 0 0 0
SMALL
GASTEIGER

@<TRIPOS>ATOM
      1 C          63.5996   86.2903   15.1720 C.3     1  UNL1        0.0719
      2 C          64.2126   87.2186   14.1659 C.3     1  UNL1        0.0197
      3 C          64.3096   88.6861   14.4610 C.3     1  UNL1        0.0041
      4 C          63.7937   89.2251   15.7622 C.3     1  UNL1        0.0271
      5 C          63.1807   88.2968   16.7684 C.3     1  UNL1        0.0041
      6 C          63.0836   86.8293   16.4733 C.3     1  UNL1        0.0197
      7 O          62.1256   85.3440   12.7364 O.2     1  UNL1       -0.2701
      8 C          62.7655   84.3496   13.6592 C.2     1  UNL1        0.2458
      9 N          63.5025   84.8227   14.8770 N.am    1  UNL1       -0.3025
     10 H          63.9225   84.1701   15.4827 H       1  UNL1        0.1497
     11 C          62.6685   82.8821   13.3643 C.ar    1  UNL1        0.0534
     12 C          62.0702   81.9516   14.3772 C.ar    1  UNL1        0.0045
     13 C          61.9731   80.4840   14.0824 C.ar    1  UNL1        0.0001
     14 C          62.4743   79.9471   12.7745 C.ar    1  UNL1        0.0000
     15 C          63.0726   80.8777   11.7615 C.ar    1  UNL1        0.0001
     16 C          63.1697   82.3452   12.0564 C.ar    1  UNL1        0.0045
     17 C          63.8907   90.6926   16.0573 C.3     1  UNL1        0.1127
     18 O          63.8874   91.1738   17.4780 O.3     1  UNL1       -0.3844
     19 H          63.9562   92.1412   17.4919 H       1  UNL1        0.2103
     20 C          63.9911   91.6790   14.9316 C.3     1  UNL1        0.0564
     21 C          65.3246   91.9785   14.3135 C.3     1  UNL1        0.1119
     22 C          65.6031   92.1280   12.8472 C.ar    1  UNL1       -0.0002
     23 C          64.7149   92.0337   11.6422 C.ar    1  UNL1       -0.0024
     24 C          65.2879   92.2343   10.2706 C.ar    1  UNL1       -0.0003
     25 C          66.7492   92.5292   10.1040 C.ar    1  UNL1        0.0000
     26 C          67.6374   92.6236   11.3090 C.ar    1  UNL1        0.0012
     27 C          67.0643   92.4229   12.6806 C.ar    1  UNL1        0.0152
     28 C          67.6889   92.4557   14.0440 C.ar    1  UNL1        0.0804
     29 C          68.9782   92.6582   14.7837 C.ar    1  UNL1        0.1177
     30 N          68.6996   92.5087   16.2500 N.ar    1  UNL1       -0.2223
     31 C          67.2383   92.2138   16.4166 C.ar    1  UNL1        0.1788
     32 N          66.6137   92.1810   15.0532 N.ar    1  UNL1       -0.3069
@<TRIPOS>BOND
     1     7     8    2
     2     8     9   am
     3     1     9    1
     4     1     2    1
     5     2     3    1
     6     3     4    1
     7     4    17    1
     8    17    18    1
     9    17    20    1
    10    20    21    1
    11    21    22    1
    12    22    23   ar
    13    23    24   ar
    14    24    25   ar
    15    25    26   ar
    16    26    27   ar
    17    27    28    1
    18    28    29   ar
    19    29    30   ar
    20    30    31   ar
    21    31    32   ar
    22     4     5    1
    23     5     6    1
    24     8    11    1
    25    11    12   ar
    26    12    13   ar
    27    13    14   ar
    28    14    15   ar
    29    15    16   ar
    30     6     1    1
    31    16    11   ar
    32    32    21    1
    33    27    22   ar
    34    32    28   ar
    35     9    10    1
    36    18    19    1
@<TRIPOS>MOLECULE
*****
 32 36 0 0 0
SMALL
GASTEIGER

@<TRIPOS>ATOM
      1 C          62.4440   86.7274   11.5488 C.3     1  UNL1        0.0719
      2 C          63.1041   87.5069   12.6473 C.3     1  UNL1        0.0197
      3 C          63.3723   88.9721   12.4704 C.3     1  UNL1        0.0041
      4 C          62.9805   89.6577   11.1951 C.3     1  UNL1        0.0271
      5 C          62.3204   88.8782   10.0967 C.3     1  UNL1        0.0041
      6 C          62.0522   87.4130   10.2736 C.3     1  UNL1        0.0197
      7 O          64.0675   85.1299   13.5015 O.2     1  UNL1       -0.2701
      8 C          62.9875   84.4634   12.7019 C.2     1  UNL1        0.2458
      9 N          62.1758   85.2622   11.7256 N.am    1  UNL1       -0.3025
     10 H          61.4669   84.8247   11.2009 H       1  UNL1        0.1497
     11 C          62.7191   82.9983   12.8787 C.ar    1  UNL1        0.0534
     12 C          63.1109   82.0290   11.8030 C.ar    1  UNL1        0.0045
     13 C          62.8426   80.5638   11.9797 C.ar    1  UNL1        0.0001
     14 C          62.1825   80.0679   13.2320 C.ar    1  UNL1        0.0000
     15 C          61.7907   81.0372   14.3077 C.ar    1  UNL1        0.0001
     16 C          62.0590   82.5024   14.1310 C.ar    1  UNL1        0.0045
     17 C          63.2487   91.1229   11.0182 C.3     1  UNL1        0.1127
     18 O          63.0226   91.7711    9.6846 O.3     1  UNL1       -0.3844
     19 H          63.2422   92.7142    9.7421 H       1  UNL1        0.2103
     20 C          63.7431   91.9399   12.1751 C.3     1  UNL1        0.0564
     21 C          65.2167   92.1041   12.4018 C.3     1  UNL1        0.1119
     22 C          65.8994   92.1907   13.7347 C.ar    1  UNL1       -0.0002
     23 C          65.3712   92.1445   15.1378 C.ar    1  UNL1       -0.0024
     24 C          66.3146   92.2583   16.2984 C.ar    1  UNL1       -0.0003
     25 C          67.7862   92.4183   16.0559 C.ar    1  UNL1        0.0000
     26 C          68.3144   92.4645   14.6528 C.ar    1  UNL1        0.0012
     27 C          67.3710   92.3507   13.4922 C.ar    1  UNL1        0.0152
     28 C          67.5978   92.3630   12.0095 C.ar    1  UNL1        0.0804
     29 C          68.6475   92.4694   10.9432 C.ar    1  UNL1        0.1177
     30 N          67.9647   92.3829    9.6104 N.ar    1  UNL1       -0.2223
     31 C          66.4931   92.2229    9.8529 C.ar    1  UNL1        0.1788
     32 N          66.2664   92.2106   11.3356 N.ar    1  UNL1       -0.3069
@<TRIPOS>BOND
     1     7     8    2
     2     8     9   am
     3     1     9    1
     4     1     2    1
     5     2     3    1
     6     3     4    1
     7     4    17    1
     8    17    18    1
     9    17    20    1
    10    20    21    1
    11    21    22    1
    12    22    23   ar
    13    23    24   ar
    14    24    25   ar
    15    25    26   ar
    16    26    27   ar
    17    27    28    1
    18    28    29   ar
    19    29    30   ar
    20    30    31   ar
    21    31    32   ar
    22     4     5    1
    23     5     6    1
    24     8    11    1
    25    11    12   ar
    26    12    13   ar
    27    13    14   ar
    28    14    15   ar
    29    15    16   ar
    30     6     1    1
    31    16    11   ar
    32    32    21    1
    33    27    22   ar
    34    32    28   ar
    35     9    10    1
    36    18    19    1
@<TRIPOS>MOLECULE
*****
 32 36 0 0 0
SMALL
GASTEIGER

@<TRIPOS>ATOM
      1 C          62.5798   86.2312   11.2584 C.3     1  UNL1        0.0719
      2 C          62.0252   86.9163   10.0447 C.3     1  UNL1        0.0197
      3 C          62.0574   88.4128    9.9478 C.3     1  UNL1        0.0041
      4 C          62.6442   89.2242   11.0647 C.3     1  UNL1        0.0271
      5 C          63.1988   88.5391   12.2783 C.3     1  UNL1        0.0041
      6 C          63.1666   87.0426   12.3752 C.3     1  UNL1        0.0197
      7 O          62.4501   84.9044   13.9460 O.2     1  UNL1       -0.2701
      8 C          62.4828   84.0713   12.6991 C.2     1  UNL1        0.2458
      9 N          62.5476   84.7347   11.3553 N.am    1  UNL1       -0.3025
     10 H          62.5690   84.1878   10.5369 H       1  UNL1        0.1497
     11 C          62.4506   82.5748   12.7959 C.ar    1  UNL1        0.0534
     12 C          61.9428   81.9148   14.0435 C.ar    1  UNL1        0.0045
     13 C          61.9106   80.4182   14.1405 C.ar    1  UNL1        0.0001
     14 C          62.3862   79.5818   12.9897 C.ar    1  UNL1        0.0000
     15 C          62.8939   80.2418   11.7420 C.ar    1  UNL1        0.0001
     16 C          62.9261   81.7383   11.6452 C.ar    1  UNL1        0.0045
     17 C          62.6764   90.7207   10.9678 C.3     1  UNL1        0.1127
     18 O          61.5256   91.5308   11.4867 O.3     1  UNL1       -0.3844
     19 H          61.7053   92.4739   11.3477 H       1  UNL1        0.2103
     20 C          63.8596   91.4072   10.3520 C.3     1  UNL1        0.0564
     21 C          64.7141   92.3183   11.1825 C.3     1  UNL1        0.1119
     22 C          65.0958   92.1041   12.6172 C.ar    1  UNL1       -0.0002
     23 C          64.7724   91.0082   13.5889 C.ar    1  UNL1       -0.0024
     24 C          65.3077   91.0652   14.9890 C.ar    1  UNL1       -0.0003
     25 C          66.1664   92.2181   15.4172 C.ar    1  UNL1        0.0000
     26 C          66.4898   93.3140   14.4455 C.ar    1  UNL1        0.0012
     27 C          65.9545   93.2570   13.0454 C.ar    1  UNL1        0.0152
     28 C          66.1035   94.1837   11.8754 C.ar    1  UNL1        0.0804
     29 C          66.7264   95.4690   11.4170 C.ar    1  UNL1        0.1177
     30 N          66.3446   95.6832    9.9822 N.ar    1  UNL1       -0.2223
     31 C          65.4859   94.5303    9.5539 C.ar    1  UNL1        0.1788
     32 N          65.3369   93.6036   10.7240 N.ar    1  UNL1       -0.3069
@<TRIPOS>BOND
     1     7     8    2
     2     8     9   am
     3     1     9    1
     4     1     2    1
     5     2     3    1
     6     3     4    1
     7     4    17    1
     8    17    18    1
     9    17    20    1
    10    20    21    1
    11    21    22    1
    12    22    23   ar
    13    23    24   ar
    14    24    25   ar
    15    25    26   ar
    16    26    27   ar
    17    27    28    1
    18    28    29   ar
    19    29    30   ar
    20    30    31   ar
    21    31    32   ar
    22     4     5    1
    23     5     6    1
    24     8    11    1
    25    11    12   ar
    26    12    13   ar
    27    13    14   ar
    28    14    15   ar
    29    15    16   ar
    30     6     1    1
    31    16    11   ar
    32    32    21    1
    33    27    22   ar
    34    32    28   ar
    35     9    10    1
    36    18    19    1
@<TRIPOS>MOLECULE
*****
 32 36 0 0 0
SMALL
GASTEIGER

@<TRIPOS>ATOM
      1 C          63.9437   91.1833   12.1079 C.3     1  UNL1        0.0719
      2 C          63.0963   90.2261   12.8924 C.3     1  UNL1        0.0197
      3 C          62.0115   89.4494   12.2069 C.3     1  UNL1        0.0041
      4 C          61.7742   89.6299   10.7368 C.3     1  UNL1        0.0271
      5 C          62.6216   90.5871    9.9523 C.3     1  UNL1        0.0041
      6 C          63.7064   91.3638   10.6378 C.3     1  UNL1        0.0197
      7 O          65.3117   90.0404   14.5209 O.2     1  UNL1       -0.2701
      8 C          65.7125   91.3886   13.9998 C.2     1  UNL1        0.2458
      9 N          65.0286   91.9600   12.7933 N.am    1  UNL1       -0.3025
     10 H          65.2917   92.8449   12.4513 H       1  UNL1        0.1497
     11 C          66.7973   92.1654   14.6852 C.ar    1  UNL1        0.0534
     12 C          67.8158   91.4514   15.5236 C.ar    1  UNL1        0.0045
     13 C          68.9007   92.2282   16.2090 C.ar    1  UNL1        0.0001
     14 C          68.9670   93.7189   16.0561 C.ar    1  UNL1        0.0000
     15 C          67.9484   94.4329   15.2177 C.ar    1  UNL1        0.0001
     16 C          66.8636   93.6561   14.5323 C.ar    1  UNL1        0.0045
     17 C          60.6894   88.8532   10.0513 C.3     1  UNL1        0.1127
     18 O          59.8716   89.4992    8.9724 O.3     1  UNL1       -0.3844
     19 H          59.2195   88.8643    8.6370 H       1  UNL1        0.2103
     20 C          60.4224   87.4305   10.4446 C.3     1  UNL1        0.0564
     21 C          61.2869   86.3288    9.9070 C.3     1  UNL1        0.1119
     22 C          62.2637   85.5094   10.6971 C.ar    1  UNL1       -0.0002
     23 C          62.6506   85.5305   12.1462 C.ar    1  UNL1       -0.0024
     24 C          63.6807   84.5696   12.6614 C.ar    1  UNL1       -0.0003
     25 C          64.3239   83.5876   11.7277 C.ar    1  UNL1        0.0000
     26 C          63.9370   83.5664   10.2786 C.ar    1  UNL1        0.0012
     27 C          62.9069   84.5273    9.7633 C.ar    1  UNL1        0.0152
     28 C          62.3275   84.7399    8.3962 C.ar    1  UNL1        0.0804
     29 C          62.3670   84.2643    6.9740 C.ar    1  UNL1        0.1177
     30 N          61.3901   85.0838    6.1840 N.ar    1  UNL1       -0.2223
     31 C          60.7469   86.0659    7.1178 C.ar    1  UNL1        0.1788
     32 N          61.3263   85.8533    8.4849 N.ar    1  UNL1       -0.3069
@<TRIPOS>BOND
     1     7     8    2
     2     8     9   am
     3     1     9    1
     4     1     2    1
     5     2     3    1
     6     3     4    1
     7     4    17    1
     8    17    18    1
     9    17    20    1
    10    20    21    1
    11    21    22    1
    12    22    23   ar
    13    23    24   ar
    14    24    25   ar
    15    25    26   ar
    16    26    27   ar
    17    27    28    1
    18    28    29   ar
    19    29    30   ar
    20    30    31   ar
    21    31    32   ar
    22     4     5    1
    23     5     6    1
    24     8    11    1
    25    11    12   ar
    26    12    13   ar
    27    13    14   ar
    28    14    15   ar
    29    15    16   ar
    30     6     1    1
    31    16    11   ar
    32    32    21    1
    33    27    22   ar
    34    32    28   ar
    35     9    10    1
    36    18    19    1
@<TRIPOS>MOLECULE
*****
 32 36 0 0 0
SMALL
GASTEIGER

@<TRIPOS>ATOM
      1 C          62.4280   86.7068   11.4773 C.3     1  UNL1        0.0719
      2 C          63.0818   87.4871   12.5790 C.3     1  UNL1        0.0197
      3 C          63.3317   88.9565   12.4109 C.3     1  UNL1        0.0041
      4 C          62.9279   89.6456   11.1413 C.3     1  UNL1        0.0271
      5 C          62.2741   88.8653   10.0396 C.3     1  UNL1        0.0041
      6 C          62.0242   87.3959   10.2077 C.3     1  UNL1        0.0197
      7 O          64.0057   85.1370   13.4890 O.2     1  UNL1       -0.2701
      8 C          62.9668   84.4524   12.6511 C.2     1  UNL1        0.2458
      9 N          62.1780   85.2373   11.6453 N.am    1  UNL1       -0.3025
     10 H          61.4962   84.7880   11.0953 H       1  UNL1        0.1497
     11 C          62.7168   82.9829   12.8190 C.ar    1  UNL1        0.0534
     12 C          63.0829   82.0296   11.7203 C.ar    1  UNL1        0.0045
     13 C          62.8329   80.5601   11.8882 C.ar    1  UNL1        0.0001
     14 C          62.2168   80.0441   13.1547 C.ar    1  UNL1        0.0000
     15 C          61.8506   80.9974   14.2534 C.ar    1  UNL1        0.0001
     16 C          62.1007   82.4669   14.0855 C.ar    1  UNL1        0.0045
     17 C          63.1778   91.1151   10.9732 C.3     1  UNL1        0.1127
     18 O          62.9815   91.7609    9.6337 O.3     1  UNL1       -0.3844
     19 H          63.1842   92.7073    9.6982 H       1  UNL1        0.2103
     20 C          63.6241   91.9388   12.1448 C.3     1  UNL1        0.0564
     21 C          65.0832   92.0403   12.4779 C.3     1  UNL1        0.1119
     22 C          66.2056   92.1713   11.4915 C.ar    1  UNL1       -0.0002
     23 C          66.2225   92.2365    9.9930 C.ar    1  UNL1       -0.0024
     24 C          67.5258   92.3709    9.2628 C.ar    1  UNL1       -0.0003
     25 C          68.8123   92.4403   10.0311 C.ar    1  UNL1        0.0000
     26 C          68.7954   92.3751   11.5296 C.ar    1  UNL1        0.0012
     27 C          67.4921   92.2407   12.2598 C.ar    1  UNL1        0.0152
     28 C          67.1646   92.1525   13.7209 C.ar    1  UNL1        0.0804
     29 C          67.7574   92.1409   15.0989 C.ar    1  UNL1        0.1177
     30 N          66.6349   92.0098   16.0852 N.ar    1  UNL1       -0.2223
     31 C          65.3484   91.9405   15.3169 C.ar    1  UNL1        0.1788
     32 N          65.6758   92.0287   13.8557 N.ar    1  UNL1       -0.3069
@<TRIPOS>BOND
     1     7     8    2
     2     8     9   am
     3     1     9    1
     4     1     2    1
     5     2     3    1
     6     3     4    1
     7     4    17    1
     8    17    18    1
     9    17    20    1
    10    20    21    1
    11    21    22    1
    12    22    23   ar
    13    23    24   ar
    14    24    25   ar
    15    25    26   ar
    16    26    27   ar
    17    27    28    1
    18    28    29   ar
    19    29    30   ar
    20    30    31   ar
    21    31    32   ar
    22     4     5    1
    23     5     6    1
    24     8    11    1
    25    11    12   ar
    26    12    13   ar
    27    13    14   ar
    28    14    15   ar
    29    15    16   ar
    30     6     1    1
    31    16    11   ar
    32    32    21    1
    33    27    22   ar
    34    32    28   ar
    35     9    10    1
    36    18    19    1
@<TRIPOS>MOLECULE
*****
 32 36 0 0 0
SMALL
GASTEIGER

@<TRIPOS>ATOM
      1 C          61.8435   85.7916   10.6543 C.3     1  UNL1        0.0719
      2 C          60.8536   86.5813   11.4583 C.3     1  UNL1        0.0197
      3 C          60.7297   88.0617   11.2507 C.3     1  UNL1        0.0041
      4 C          61.5956   88.7523   10.2392 C.3     1  UNL1        0.0271
      5 C          62.5855   87.9627    9.4352 C.3     1  UNL1        0.0041
      6 C          62.7095   86.4823    9.6428 C.3     1  UNL1        0.0197
      7 O          62.5725   84.7113   13.3565 O.2     1  UNL1       -0.2701
      8 C          62.3320   83.7711   12.2128 C.2     1  UNL1        0.2458
      9 N          61.9675   84.3112   10.8617 N.am    1  UNL1       -0.3025
     10 H          61.8097   83.6940   10.1111 H       1  UNL1        0.1497
     11 C          62.4560   82.2906   12.4202 C.ar    1  UNL1        0.0534
     12 C          62.8569   81.4044   11.2783 C.ar    1  UNL1        0.0045
     13 C          62.9809   79.9240   11.4856 C.ar    1  UNL1        0.0001
     14 C          62.7039   79.3299   12.8348 C.ar    1  UNL1        0.0000
     15 C          62.3030   80.2161   13.9767 C.ar    1  UNL1        0.0001
     16 C          62.1790   81.6965   13.7694 C.ar    1  UNL1        0.0045
     17 C          61.4717   90.2327   10.0317 C.3     1  UNL1        0.1127
     18 O          60.1162   90.8596    9.8917 O.3     1  UNL1       -0.3844
     19 H          60.2139   91.8163    9.7647 H       1  UNL1        0.2103
     20 C          62.7034   91.0864    9.9641 C.3     1  UNL1        0.0564
     21 C          63.5171   91.3281   11.2008 C.3     1  UNL1        0.1119
     22 C          64.7376   92.1948   11.2977 C.ar    1  UNL1       -0.0002
     23 C          65.4656   93.0206   10.2790 C.ar    1  UNL1       -0.0024
     24 C          66.6841   93.7996   10.6770 C.ar    1  UNL1       -0.0003
     25 C          67.1745   93.7527   12.0937 C.ar    1  UNL1        0.0000
     26 C          66.4465   92.9269   13.1125 C.ar    1  UNL1        0.0012
     27 C          65.2280   92.1479   12.7145 C.ar    1  UNL1        0.0152
     28 C          64.3107   91.2522   13.4931 C.ar    1  UNL1        0.0804
     29 C          64.0470   90.6696   14.8501 C.ar    1  UNL1        0.1177
     30 N          62.8265   89.8029   14.7531 N.ar    1  UNL1       -0.2223
     31 C          62.3360   89.8498   13.3363 C.ar    1  UNL1        0.1788
     32 N          63.2533   90.7455   12.5576 N.ar    1  UNL1       -0.3069
@<TRIPOS>BOND
     1     7     8    2
     2     8     9   am
     3     1     9    1
     4     1     2    1
     5     2     3    1
     6     3     4    1
     7     4    17    1
     8    17    18    1
     9    17    20    1
    10    20    21    1
    11    21    22    1
    12    22    23   ar
    13    23    24   ar
    14    24    25   ar
    15    25    26   ar
    16    26    27   ar
    17    27    28    1
    18    28    29   ar
    19    29    30   ar
    20    30    31   ar
    21    31    32   ar
    22     4     5    1
    23     5     6    1
    24     8    11    1
    25    11    12   ar
    26    12    13   ar
    27    13    14   ar
    28    14    15   ar
    29    15    16   ar
    30     6     1    1
    31    16    11   ar
    32    32    21    1
    33    27    22   ar
    34    32    28   ar
    35     9    10    1
    36    18    19    1
@<TRIPOS>MOLECULE
*****
 32 36 0 0 0
SMALL
GASTEIGER

@<TRIPOS>ATOM
      1 C          56.2474   94.3294   -2.1674 C.3     1  UNL1        0.0719
      2 C          56.3419   92.8919   -1.7497 C.3     1  UNL1        0.0197
      3 C          57.4382   92.4498   -0.8263 C.3     1  UNL1        0.0041
      4 C          58.4398   93.4452   -0.3205 C.3     1  UNL1        0.0271
      5 C          58.3453   94.8828   -0.7382 C.3     1  UNL1        0.0041
      6 C          57.2490   95.3249   -1.6617 C.3     1  UNL1        0.0197
      7 O          53.8949   95.8450   -1.0860 O.2     1  UNL1       -0.2701
      8 C          53.9749   95.5293   -2.5502 C.2     1  UNL1        0.2458
      9 N          55.1511   94.7716   -3.0909 N.am    1  UNL1       -0.3025
     10 H          55.2036   94.5644   -4.0519 H       1  UNL1        0.1497
     11 C          52.8787   95.9714   -3.4737 C.ar    1  UNL1        0.0534
     12 C          51.4749   96.1037   -2.9621 C.ar    1  UNL1        0.0045
     13 C          50.3787   96.5458   -3.8856 C.ar    1  UNL1        0.0001
     14 C          50.6863   96.8557   -5.3206 C.ar    1  UNL1        0.0000
     15 C          52.0902   96.7234   -5.8323 C.ar    1  UNL1        0.0001
     16 C          53.1864   96.2813   -4.9087 C.ar    1  UNL1        0.0045
     17 C          59.5361   93.0032    0.6029 C.3     1  UNL1        0.1127
     18 O          59.4198   93.2507    2.0778 O.3     1  UNL1       -0.3844
     19 H          60.2074   92.9057    2.5266 H       1  UNL1        0.2103
     20 C          60.7488   92.3135    0.0515 C.3     1  UNL1        0.0564
     21 C          61.9108   93.1221   -0.4446 C.3     1  UNL1        0.1119
     22 C          62.0681   93.6837   -1.8266 C.ar    1  UNL1       -0.0002
     23 C          61.1909   93.6200   -3.0417 C.ar    1  UNL1       -0.0024
     24 C          61.6197   94.2923   -4.3121 C.ar    1  UNL1       -0.0003
     25 C          62.9255   95.0283   -4.3675 C.ar    1  UNL1        0.0000
     26 C          63.8027   95.0919   -3.1524 C.ar    1  UNL1        0.0012
     27 C          63.3739   94.4196   -1.8819 C.ar    1  UNL1        0.0152
     28 C          64.0237   94.3128   -0.5342 C.ar    1  UNL1        0.0804
     29 C          65.2324   94.7017    0.2646 C.ar    1  UNL1        0.1177
     30 N          65.0750   94.1400    1.6466 N.ar    1  UNL1       -0.2223
     31 C          63.7691   93.4041    1.7019 C.ar    1  UNL1        0.1788
     32 N          63.1194   93.5109    0.3542 N.ar    1  UNL1       -0.3069
@<TRIPOS>BOND
     1     7     8    2
     2     8     9   am
     3     1     9    1
     4     1     2    1
     5     2     3    1
     6     3     4    1
     7     4    17    1
     8    17    18    1
     9    17    20    1
    10    20    21    1
    11    21    22    1
    12    22    23   ar
    13    23    24   ar
    14    24    25   ar
    15    25    26   ar
    16    26    27   ar
    17    27    28    1
    18    28    29   ar
    19    29    30   ar
    20    30    31   ar
    21    31    32   ar
    22     4     5    1
    23     5     6    1
    24     8    11    1
    25    11    12   ar
    26    12    13   ar
    27    13    14   ar
    28    14    15   ar
    29    15    16   ar
    30     6     1    1
    31    16    11   ar
    32    32    21    1
    33    27    22   ar
    34    32    28   ar
    35     9    10    1
    36    18    19    1
