@<TRIPOS>MOLECULE
*****
 32 35 0 0 0
SMALL
GASTEIGER

@<TRIPOS>ATOM
      1 C          62.0740   87.6606   10.2272 C.ar    1  UNL1        0.0992
      2 C          62.9547   88.8702   10.1200 C.ar    1  UNL1        0.0624
      3 C          62.1352   90.0736   10.4809 C.ar    1  UNL1        0.1566
      4 C          60.7481   89.6079   10.8111 C.ar    1  UNL1        0.1330
      5 S          60.7103   88.1166   10.6543 S.2     1  UNL1       -0.0559
      6 C          63.2194   82.6654   12.5450 C.ar    1  UNL1        0.1740
      7 C          63.3585   82.6624   11.0514 C.ar    1  UNL1        0.0607
      8 C          63.0898   83.9148   10.2707 C.ar    1  UNL1        0.1023
      9 N          63.1446   84.2129    8.8016 N.ar    1  UNL1       -0.2235
     10 C          62.7707   85.6524    8.6066 C.ar    1  UNL1        0.1831
     11 N          62.4849   86.2439    9.9550 N.ar    1  UNL1       -0.2822
     12 C          62.6821   85.1700   10.9835 C.ar    1  UNL1        0.0867
     13 C          62.5430   85.1729   12.4771 C.ar    1  UNL1        0.0591
     14 C          62.8117   83.9206   13.2577 C.ar    1  UNL1        0.1739
     15 C          62.4223   80.3652   13.4528 C.3     1  UNL1        0.2526
     16 O          63.4881   81.4130   13.3257 O.3     1  UNL1       -0.4683
     17 O          62.6727   83.9236   14.7513 O.3     1  UNL1       -0.4683
     18 C          63.5516   84.8083   15.5846 C.3     1  UNL1        0.2526
     19 C          59.6003   90.4803   11.2254 C.1     1  UNL1        0.1101
     20 N          58.4526   91.3526   11.6397 N.1     1  UNL1       -0.1902
     21 O          62.6181   91.4935   10.5070 O.3     1  UNL1       -0.4693
     22 C          64.0892   91.7850   10.5334 C.3     1  UNL1        0.2333
     23 C          64.8124   91.8762   11.8444 C.ar    1  UNL1        0.0383
     24 C          64.3082   91.1139   13.0338 C.ar    1  UNL1        0.0006
     25 C          65.0314   91.2052   14.3447 C.ar    1  UNL1       -0.0001
     26 C          66.2589   92.0587   14.4663 C.ar    1  UNL1        0.0013
     27 C          66.7631   92.8210   13.2769 C.ar    1  UNL1        0.0181
     28 C          66.0399   92.7298   11.9660 C.ar    1  UNL1        0.1052
     29 S          66.5441   93.4920   10.7766 S.O2    1  UNL1        0.0103
     30 C          67.0484   94.2543    9.5871 C.3     1  UNL1        0.1816
     31 O          67.3419   92.2962   10.3483 O.2     1  UNL1       -0.1686
     32 O          65.7463   94.6879   11.2048 O.2     1  UNL1       -0.1686
@<TRIPOS>BOND
     1    15    16    1
     2    16     6    1
     3     6     7   ar
     4     7     8   ar
     5     8     9   ar
     6     9    10   ar
     7    10    11   ar
     8    11     1    1
     9     1     2   ar
    10     2     3   ar
    11     3    21    1
    12    21    22    1
    13    22    23    1
    14    23    24   ar
    15    24    25   ar
    16    25    26   ar
    17    26    27   ar
    18    27    28   ar
    19    28    29    1
    20    29    30    1
    21    29    31    2
    22    29    32    2
    23     3     4   ar
    24     4    19    1
    25    19    20    3
    26     4     5   ar
    27    11    12   ar
    28    12    13   ar
    29    13    14   ar
    30    14    17    1
    31    17    18    1
    32    14     6   ar
    33    12     8   ar
    34     5     1   ar
    35    28    23   ar
@<TRIPOS>MOLECULE
*****
 32 35 0 0 0
SMALL
GASTEIGER

@<TRIPOS>ATOM
      1 C          63.2595   89.2069   12.4205 C.ar    1  UNL1        0.0992
      2 C          63.3528   87.7230   12.6185 C.ar    1  UNL1        0.0624
      3 C          62.4712   87.0631   11.6000 C.ar    1  UNL1        0.1566
      4 C          61.8329   88.1392   10.7726 C.ar    1  UNL1        0.1330
      5 S          62.3201   89.4641   11.2797 S.2     1  UNL1       -0.0559
      6 C          66.1979   93.9967   12.1760 C.ar    1  UNL1        0.1740
      7 C          66.0167   93.4930   13.5773 C.ar    1  UNL1        0.0607
      8 C          65.2556   92.2245   13.8257 C.ar    1  UNL1        0.1023
      9 N          64.9175   91.4878   15.0878 N.ar    1  UNL1       -0.2235
     10 C          64.1286   90.2677   14.7150 C.ar    1  UNL1        0.1831
     11 N          63.9791   90.2504   13.2225 N.ar    1  UNL1       -0.2822
     12 C          64.6757   91.4598   12.6729 C.ar    1  UNL1        0.0867
     13 C          64.8569   91.9636   11.2717 C.ar    1  UNL1        0.0591
     14 C          65.6180   93.2320   11.0233 C.ar    1  UNL1        0.1739
     15 C          66.2317   96.5038   11.4949 C.3     1  UNL1        0.2526
     16 O          66.9590   95.2653   11.9276 O.3     1  UNL1       -0.4683
     17 O          65.7991   93.7358    9.6220 O.3     1  UNL1       -0.4683
     18 C          67.1737   93.8230    9.0282 C.3     1  UNL1        0.2526
     19 C          60.8755   87.9276    9.6374 C.1     1  UNL1        0.1101
     20 N          59.9182   87.7159    8.5022 N.1     1  UNL1       -0.1902
     21 O          62.2641   85.5864   11.4375 O.3     1  UNL1       -0.4693
     22 C          63.4049   84.6395   11.6658 C.3     1  UNL1        0.2333
     23 C          63.1579   83.3104   12.3155 C.ar    1  UNL1        0.0383
     24 C          62.8642   82.1057   11.4713 C.ar    1  UNL1        0.0006
     25 C          62.6172   80.7766   12.1212 C.ar    1  UNL1       -0.0001
     26 C          62.6639   80.6520   13.6153 C.ar    1  UNL1        0.0013
     27 C          62.9576   81.8566   14.4595 C.ar    1  UNL1        0.0181
     28 C          63.2046   83.1857   13.8097 C.ar    1  UNL1        0.1052
     29 S          63.4982   84.3903   14.6539 S.O2    1  UNL1        0.0103
     30 C          63.7919   85.5950   15.4981 C.3     1  UNL1        0.1816
     31 O          62.0280   84.6572   14.7846 O.2     1  UNL1       -0.1686
     32 O          64.9685   84.1235   14.5231 O.2     1  UNL1       -0.1686
@<TRIPOS>BOND
     1    15    16    1
     2    16     6    1
     3     6     7   ar
     4     7     8   ar
     5     8     9   ar
     6     9    10   ar
     7    10    11   ar
     8    11     1    1
     9     1     2   ar
    10     2     3   ar
    11     3    21    1
    12    21    22    1
    13    22    23    1
    14    23    24   ar
    15    24    25   ar
    16    25    26   ar
    17    26    27   ar
    18    27    28   ar
    19    28    29    1
    20    29    30    1
    21    29    31    2
    22    29    32    2
    23     3     4   ar
    24     4    19    1
    25    19    20    3
    26     4     5   ar
    27    11    12   ar
    28    12    13   ar
    29    13    14   ar
    30    14    17    1
    31    17    18    1
    32    14     6   ar
    33    12     8   ar
    34     5     1   ar
    35    28    23   ar
@<TRIPOS>MOLECULE
*****
 32 35 0 0 0
SMALL
GASTEIGER

@<TRIPOS>ATOM
      1 C          62.7889   89.9902   10.7670 C.ar    1  UNL1        0.0992
      2 C          62.6084   88.6368   11.3880 C.ar    1  UNL1        0.0624
      3 C          61.5004   87.9364   10.6588 C.ar    1  UNL1        0.1566
      4 C          60.9961   88.8569    9.5872 C.ar    1  UNL1        0.1330
      5 S          61.7925   90.1262    9.6541 S.2     1  UNL1       -0.0559
      6 C          65.5344   92.2549   15.1224 C.ar    1  UNL1        0.1740
      7 C          65.8940   92.8889   13.8113 C.ar    1  UNL1        0.0607
      8 C          65.2534   92.4056   12.5440 C.ar    1  UNL1        0.1023
      9 N          65.4082   92.8335   11.1147 N.ar    1  UNL1       -0.2235
     10 C          64.5038   91.9808   10.2751 C.ar    1  UNL1        0.1831
     11 N          63.7901   91.0259   11.1855 N.ar    1  UNL1       -0.2822
     12 C          64.2534   91.2884   12.5878 C.ar    1  UNL1        0.0867
     13 C          63.8940   90.6545   13.8989 C.ar    1  UNL1        0.0591
     14 C          64.5345   91.1378   15.1662 C.ar    1  UNL1        0.1739
     15 C          67.6697   92.8062   16.4962 C.3     1  UNL1        0.2526
     16 O          66.1750   92.7382   16.3899 O.3     1  UNL1       -0.4683
     17 O          64.1750   90.5038   16.4773 O.3     1  UNL1       -0.4683
     18 C          63.1459   89.4137   16.5261 C.3     1  UNL1        0.2526
     19 C          59.8897   88.5601    8.6188 C.1     1  UNL1        0.1101
     20 N          58.7834   88.2634    7.6503 N.1     1  UNL1       -0.1902
     21 O          60.9868   86.5575   10.9502 O.3     1  UNL1       -0.4693
     22 C          61.6512   85.7157   11.9989 C.3     1  UNL1        0.2333
     23 C          62.6548   84.6747   11.6004 C.ar    1  UNL1        0.0383
     24 C          62.9875   84.4690   10.1523 C.ar    1  UNL1        0.0006
     25 C          63.9912   83.4279    9.7538 C.ar    1  UNL1       -0.0001
     26 C          64.6621   82.5924   10.8035 C.ar    1  UNL1        0.0013
     27 C          64.3294   82.7980   12.2516 C.ar    1  UNL1        0.0181
     28 C          63.3258   83.8391   12.6500 C.ar    1  UNL1        0.1052
     29 S          62.9931   84.0447   14.0981 S.O2    1  UNL1        0.0103
     30 C          62.6603   84.2503   15.5463 C.3     1  UNL1        0.1816
     31 O          62.0601   82.8712   14.0505 O.2     1  UNL1       -0.1686
     32 O          63.9261   85.2182   14.1459 O.2     1  UNL1       -0.1686
@<TRIPOS>BOND
     1    15    16    1
     2    16     6    1
     3     6     7   ar
     4     7     8   ar
     5     8     9   ar
     6     9    10   ar
     7    10    11   ar
     8    11     1    1
     9     1     2   ar
    10     2     3   ar
    11     3    21    1
    12    21    22    1
    13    22    23    1
    14    23    24   ar
    15    24    25   ar
    16    25    26   ar
    17    26    27   ar
    18    27    28   ar
    19    28    29    1
    20    29    30    1
    21    29    31    2
    22    29    32    2
    23     3     4   ar
    24     4    19    1
    25    19    20    3
    26     4     5   ar
    27    11    12   ar
    28    12    13   ar
    29    13    14   ar
    30    14    17    1
    31    17    18    1
    32    14     6   ar
    33    12     8   ar
    34     5     1   ar
    35    28    23   ar
@<TRIPOS>MOLECULE
*****
 32 35 0 0 0
SMALL
GASTEIGER

@<TRIPOS>ATOM
      1 C          62.1434   87.4784   10.4045 C.ar    1  UNL1        0.0992
      2 C          63.0884   88.6248   10.6114 C.ar    1  UNL1        0.0624
      3 C          62.2765   89.8388   10.9534 C.ar    1  UNL1        0.1566
      4 C          60.8297   89.4428   10.9578 C.ar    1  UNL1        0.1330
      5 S          60.7475   87.9840   10.6186 S.2     1  UNL1       -0.0559
      6 C          63.2119   82.3354   12.4155 C.ar    1  UNL1        0.1740
      7 C          63.3420   82.4182   10.9234 C.ar    1  UNL1        0.0607
      8 C          63.0914   83.7191   10.2198 C.ar    1  UNL1        0.1023
      9 N          63.1429   84.1025    8.7706 N.ar    1  UNL1       -0.2235
     10 C          62.7940   85.5574    8.6634 C.ar    1  UNL1        0.1831
     11 N          62.5269   86.0732   10.0464 N.ar    1  UNL1       -0.2822
     12 C          62.7107   84.9370   11.0083 C.ar    1  UNL1        0.0867
     13 C          62.5806   84.8541   12.5004 C.ar    1  UNL1        0.0591
     14 C          62.8312   83.5533   13.2039 C.ar    1  UNL1        0.1739
     15 C          62.3198   80.1078   13.4116 C.3     1  UNL1        0.2526
     16 O          63.4624   81.0345   13.1191 O.3     1  UNL1       -0.4683
     17 O          62.7010   83.4704   14.6960 O.3     1  UNL1       -0.4683
     18 C          63.0141   84.6675   15.5438 C.3     1  UNL1        0.2526
     19 C          59.6690   90.3468   11.2501 C.1     1  UNL1        0.1101
     20 N          58.5083   91.2509   11.5424 N.1     1  UNL1       -0.1902
     21 O          62.8165   91.2084   11.2405 O.3     1  UNL1       -0.4693
     22 C          63.2098   91.5816   12.6391 C.3     1  UNL1        0.2333
     23 C          64.6598   91.6991   13.0045 C.ar    1  UNL1        0.0383
     24 C          65.6090   92.4119   12.0875 C.ar    1  UNL1        0.0006
     25 C          67.0590   92.5294   12.4531 C.ar    1  UNL1       -0.0001
     26 C          67.5598   91.9341   13.7356 C.ar    1  UNL1        0.0013
     27 C          66.6106   91.2214   14.6526 C.ar    1  UNL1        0.0181
     28 C          65.1606   91.1039   14.2871 C.ar    1  UNL1        0.1052
     29 S          64.2114   90.3911   15.2041 S.O2    1  UNL1        0.0103
     30 C          63.2621   89.6784   16.1212 C.3     1  UNL1        0.1816
     31 O          64.5377   89.0908   14.5313 O.2     1  UNL1       -0.1686
     32 O          63.8850   91.6914   15.8769 O.2     1  UNL1       -0.1686
@<TRIPOS>BOND
     1    15    16    1
     2    16     6    1
     3     6     7   ar
     4     7     8   ar
     5     8     9   ar
     6     9    10   ar
     7    10    11   ar
     8    11     1    1
     9     1     2   ar
    10     2     3   ar
    11     3    21    1
    12    21    22    1
    13    22    23    1
    14    23    24   ar
    15    24    25   ar
    16    25    26   ar
    17    26    27   ar
    18    27    28   ar
    19    28    29    1
    20    29    30    1
    21    29    31    2
    22    29    32    2
    23     3     4   ar
    24     4    19    1
    25    19    20    3
    26     4     5   ar
    27    11    12   ar
    28    12    13   ar
    29    13    14   ar
    30    14    17    1
    31    17    18    1
    32    14     6   ar
    33    12     8   ar
    34     5     1   ar
    35    28    23   ar
@<TRIPOS>MOLECULE
*****
 32 35 0 0 0
SMALL
GASTEIGER

@<TRIPOS>ATOM
      1 C          63.1563   88.9956   13.2539 C.ar    1  UNL1        0.0992
      2 C          63.4244   87.5226   13.1631 C.ar    1  UNL1        0.0624
      3 C          62.7862   87.0120   11.9053 C.ar    1  UNL1        0.1566
      4 C          62.1236   88.1694   11.2188 C.ar    1  UNL1        0.1330
      5 S          62.3523   89.3953   12.0523 S.2     1  UNL1       -0.0559
      6 C          66.7972   93.0396   14.6774 C.ar    1  UNL1        0.1740
      7 C          65.8716   92.6658   15.7971 C.ar    1  UNL1        0.0607
      8 C          64.8349   91.6017   15.5896 C.ar    1  UNL1        0.1023
      9 N          63.7918   91.0255   16.5006 N.ar    1  UNL1       -0.2235
     10 C          63.0361   89.9791   15.7365 C.ar    1  UNL1        0.1831
     11 N          63.6121   89.9086   14.3533 N.ar    1  UNL1       -0.2822
     12 C          64.7238   90.9115   14.2625 C.ar    1  UNL1        0.0867
     13 C          65.6494   91.2853   13.1429 C.ar    1  UNL1        0.0591
     14 C          66.6861   92.3494   13.3504 C.ar    1  UNL1        0.1739
     15 C          68.9630   93.8737   15.8452 C.3     1  UNL1        0.2526
     16 O          67.8339   94.1037   14.8849 O.3     1  UNL1       -0.4683
     17 O          67.6117   92.7232   12.2307 O.3     1  UNL1       -0.4683
     18 C          67.1272   92.6820   10.8118 C.3     1  UNL1        0.2526
     19 C          61.3654   88.1111    9.9259 C.1     1  UNL1        0.1101
     20 N          60.6072   88.0528    8.6329 N.1     1  UNL1       -0.1902
     21 O          62.8069   85.5930   11.4194 O.3     1  UNL1       -0.4693
     22 C          63.7439   84.6007   12.0419 C.3     1  UNL1        0.2333
     23 C          63.2358   83.2564   12.4712 C.ar    1  UNL1        0.0383
     24 C          63.0634   82.1617   11.4603 C.ar    1  UNL1        0.0006
     25 C          62.5552   80.8174   11.8898 C.ar    1  UNL1       -0.0001
     26 C          62.2195   80.5676   13.3302 C.ar    1  UNL1        0.0013
     27 C          62.3920   81.6622   14.3412 C.ar    1  UNL1        0.0181
     28 C          62.9001   83.0065   13.9117 C.ar    1  UNL1        0.1052
     29 S          63.0725   84.1012   14.9227 S.O2    1  UNL1        0.0103
     30 C          63.2450   85.1958   15.9337 C.3     1  UNL1        0.1816
     31 O          61.6635   84.5519   14.6751 O.2     1  UNL1       -0.1686
     32 O          64.4816   83.6505   15.1703 O.2     1  UNL1       -0.1686
@<TRIPOS>BOND
     1    15    16    1
     2    16     6    1
     3     6     7   ar
     4     7     8   ar
     5     8     9   ar
     6     9    10   ar
     7    10    11   ar
     8    11     1    1
     9     1     2   ar
    10     2     3   ar
    11     3    21    1
    12    21    22    1
    13    22    23    1
    14    23    24   ar
    15    24    25   ar
    16    25    26   ar
    17    26    27   ar
    18    27    28   ar
    19    28    29    1
    20    29    30    1
    21    29    31    2
    22    29    32    2
    23     3     4   ar
    24     4    19    1
    25    19    20    3
    26     4     5   ar
    27    11    12   ar
    28    12    13   ar
    29    13    14   ar
    30    14    17    1
    31    17    18    1
    32    14     6   ar
    33    12     8   ar
    34     5     1   ar
    35    28    23   ar
@<TRIPOS>MOLECULE
*****
 32 35 0 0 0
SMALL
GASTEIGER

@<TRIPOS>ATOM
      1 C          62.1839   87.4569   11.0611 C.ar    1  UNL1        0.0992
      2 C          63.0367   88.3701   11.8909 C.ar    1  UNL1        0.0624
      3 C          62.2521   89.6200   12.1595 C.ar    1  UNL1        0.1566
      4 C          60.9144   89.4793   11.4957 C.ar    1  UNL1        0.1330
      5 S          60.8722   88.1423   10.8169 S.2     1  UNL1       -0.0559
      6 C          63.2647   82.1391   12.5410 C.ar    1  UNL1        0.1740
      7 C          63.4001   82.3743   11.0656 C.ar    1  UNL1        0.0607
      8 C          63.1471   83.7393   10.4976 C.ar    1  UNL1        0.1023
      9 N          63.2024   84.2689    9.0952 N.ar    1  UNL1       -0.2235
     10 C          62.8484   85.7259    9.1357 C.ar    1  UNL1        0.1831
     11 N          62.5742   86.0969   10.5630 N.ar    1  UNL1       -0.2822
     12 C          62.7588   84.8691   11.4047 C.ar    1  UNL1        0.0867
     13 C          62.6235   84.6338   12.8799 C.ar    1  UNL1        0.0591
     14 C          62.8765   83.2688   13.4480 C.ar    1  UNL1        0.1739
     15 C          62.3693   79.8440   13.3662 C.3     1  UNL1        0.2526
     16 O          63.5178   80.7741   13.1091 O.3     1  UNL1       -0.4683
     17 O          62.7412   83.0337   14.9233 O.3     1  UNL1       -0.4683
     18 C          62.5954   84.1976   15.8581 C.3     1  UNL1        0.2526
     19 C          59.8123   90.4968   11.5086 C.1     1  UNL1        0.1101
     20 N          58.7102   91.5143   11.5214 N.1     1  UNL1       -0.1902
     21 O          62.7227   90.8030   12.9527 O.3     1  UNL1       -0.4693
     22 C          64.1893   91.0140   13.1863 C.3     1  UNL1        0.2333
     23 C          64.9530   91.9830   12.3333 C.ar    1  UNL1        0.0383
     24 C          64.5157   92.2471   10.9230 C.ar    1  UNL1        0.0006
     25 C          65.2796   93.2161   10.0700 C.ar    1  UNL1       -0.0001
     26 C          66.4806   93.9210   10.6273 C.ar    1  UNL1        0.0013
     27 C          66.9178   93.6569   12.0376 C.ar    1  UNL1        0.0181
     28 C          66.1541   92.6879   12.8906 C.ar    1  UNL1        0.1052
     29 S          66.5913   92.4238   14.3009 S.O2    1  UNL1        0.0103
     30 C          67.0286   92.1596   15.7113 C.3     1  UNL1        0.1816
     31 O          65.6775   93.5091   14.7876 O.2     1  UNL1       -0.1686
     32 O          67.5052   91.3384   13.8143 O.2     1  UNL1       -0.1686
@<TRIPOS>BOND
     1    15    16    1
     2    16     6    1
     3     6     7   ar
     4     7     8   ar
     5     8     9   ar
     6     9    10   ar
     7    10    11   ar
     8    11     1    1
     9     1     2   ar
    10     2     3   ar
    11     3    21    1
    12    21    22    1
    13    22    23    1
    14    23    24   ar
    15    24    25   ar
    16    25    26   ar
    17    26    27   ar
    18    27    28   ar
    19    28    29    1
    20    29    30    1
    21    29    31    2
    22    29    32    2
    23     3     4   ar
    24     4    19    1
    25    19    20    3
    26     4     5   ar
    27    11    12   ar
    28    12    13   ar
    29    13    14   ar
    30    14    17    1
    31    17    18    1
    32    14     6   ar
    33    12     8   ar
    34     5     1   ar
    35    28    23   ar
@<TRIPOS>MOLECULE
*****
 32 35 0 0 0
SMALL
GASTEIGER

@<TRIPOS>ATOM
      1 C          62.6015   89.5004   10.7251 C.ar    1  UNL1        0.0992
      2 C          62.6138   88.1329   11.3415 C.ar    1  UNL1        0.0624
      3 C          61.5406   87.3179   10.6826 C.ar    1  UNL1        0.1566
      4 C          60.8651   88.1816    9.6591 C.ar    1  UNL1        0.1330
      5 S          61.5208   89.5304    9.6853 S.2     1  UNL1       -0.0559
      6 C          65.3100   92.0883   14.9207 C.ar    1  UNL1        0.1740
      7 C          65.5379   92.7391   13.5885 C.ar    1  UNL1        0.0607
      8 C          64.8891   92.1770   12.3584 C.ar    1  UNL1        0.1023
      9 N          64.9290   92.6005   10.9200 N.ar    1  UNL1       -0.2235
     10 C          64.0769   91.6493   10.1331 C.ar    1  UNL1        0.1831
     11 N          63.5104   90.6380   11.0852 N.ar    1  UNL1       -0.2822
     12 C          64.0124   90.9642   12.4605 C.ar    1  UNL1        0.0867
     13 C          63.7845   90.3134   13.7927 C.ar    1  UNL1        0.0591
     14 C          64.4333   90.8756   15.0227 C.ar    1  UNL1        0.1739
     15 C          67.4137   93.0152   16.1313 C.3     1  UNL1        0.2526
     16 O          65.9588   92.6505   16.1508 O.3     1  UNL1       -0.4683
     17 O          64.2053   90.2248   16.3549 O.3     1  UNL1       -0.4683
     18 C          63.1297   89.1911   16.5104 C.3     1  UNL1        0.2526
     19 C          59.7327   87.7689    8.7661 C.1     1  UNL1        0.1101
     20 N          58.6003   87.3563    7.8731 N.1     1  UNL1       -0.1902
     21 O          61.2024   85.8899   10.9929 O.3     1  UNL1       -0.4693
     22 C          62.2778   84.8443   10.9786 C.3     1  UNL1        0.2333
     23 C          63.0789   84.5751   12.2178 C.ar    1  UNL1        0.0383
     24 C          63.3024   85.6695   13.2189 C.ar    1  UNL1        0.0006
     25 C          64.1035   85.4003   14.4581 C.ar    1  UNL1       -0.0001
     26 C          64.6812   84.0366   14.6962 C.ar    1  UNL1        0.0013
     27 C          64.4576   82.9422   13.6951 C.ar    1  UNL1        0.0181
     28 C          63.6565   83.2114   12.4560 C.ar    1  UNL1        0.1052
     29 S          63.4330   82.1170   11.4548 S.O2    1  UNL1        0.0103
     30 C          63.2095   81.0225   10.4537 C.3     1  UNL1        0.1816
     31 O          64.6439   82.5669   10.6925 O.2     1  UNL1       -0.1686
     32 O          62.2221   81.6670   12.2172 O.2     1  UNL1       -0.1686
@<TRIPOS>BOND
     1    15    16    1
     2    16     6    1
     3     6     7   ar
     4     7     8   ar
     5     8     9   ar
     6     9    10   ar
     7    10    11   ar
     8    11     1    1
     9     1     2   ar
    10     2     3   ar
    11     3    21    1
    12    21    22    1
    13    22    23    1
    14    23    24   ar
    15    24    25   ar
    16    25    26   ar
    17    26    27   ar
    18    27    28   ar
    19    28    29    1
    20    29    30    1
    21    29    31    2
    22    29    32    2
    23     3     4   ar
    24     4    19    1
    25    19    20    3
    26     4     5   ar
    27    11    12   ar
    28    12    13   ar
    29    13    14   ar
    30    14    17    1
    31    17    18    1
    32    14     6   ar
    33    12     8   ar
    34     5     1   ar
    35    28    23   ar
@<TRIPOS>MOLECULE
*****
 32 35 0 0 0
SMALL
GASTEIGER

@<TRIPOS>ATOM
      1 C          62.2460   89.6312   10.8604 C.ar    1  UNL1        0.0992
      2 C          62.6264   88.9278   12.1295 C.ar    1  UNL1        0.0624
      3 C          63.6300   89.7796   12.8487 C.ar    1  UNL1        0.1566
      4 C          63.8700   91.0094   12.0241 C.ar    1  UNL1        0.1330
      5 S          63.0146   90.9177   10.7953 S.2     1  UNL1       -0.0559
      6 C          60.9958   85.4320    7.3335 C.ar    1  UNL1        0.1740
      7 C          59.9935   86.5472    7.2930 C.ar    1  UNL1        0.0607
      8 C          60.1732   87.7493    8.1721 C.ar    1  UNL1        0.1023
      9 N          59.3563   88.9948    8.3485 N.ar    1  UNL1       -0.2235
     10 C          60.0333   89.8514    9.3770 C.ar    1  UNL1        0.1831
     11 N          61.2687   89.1352    9.8363 N.ar    1  UNL1       -0.2822
     12 C          61.3552   87.8360    9.0916 C.ar    1  UNL1        0.0867
     13 C          62.3574   86.7207    9.1320 C.ar    1  UNL1        0.0591
     14 C          62.1777   85.5187    8.2529 C.ar    1  UNL1        0.1739
     15 C          61.6682   84.0609    5.2314 C.3     1  UNL1        0.2526
     16 O          60.8161   84.2299    6.4543 O.3     1  UNL1       -0.4683
     17 O          63.1800   84.4034    8.2933 O.3     1  UNL1       -0.4683
     18 C          63.6231   83.8406    9.6112 C.3     1  UNL1        0.2526
     19 C          64.8017   92.1335   12.3679 C.1     1  UNL1        0.1101
     20 N          65.7334   93.2577   12.7117 N.1     1  UNL1       -0.1902
     21 O          64.2797   89.4580   14.1619 O.3     1  UNL1       -0.4693
     22 C          64.5789   88.0328   14.5215 C.3     1  UNL1        0.2333
     23 C          63.8340   87.3696   15.6418 C.ar    1  UNL1        0.0383
     24 C          63.3732   88.1780   16.8183 C.ar    1  UNL1        0.0006
     25 C          62.6283   87.5147   17.9386 C.ar    1  UNL1       -0.0001
     26 C          62.3441   86.0429   17.8824 C.ar    1  UNL1        0.0013
     27 C          62.8049   85.2345   16.7059 C.ar    1  UNL1        0.0181
     28 C          63.5498   85.8978   15.5857 C.ar    1  UNL1        0.1052
     29 S          64.0105   85.0894   14.4092 S.O2    1  UNL1        0.0103
     30 C          64.4713   84.2809   13.2326 C.3     1  UNL1        0.1816
     31 O          65.4048   85.0793   14.9621 O.2     1  UNL1       -0.1686
     32 O          62.6162   85.0995   13.8562 O.2     1  UNL1       -0.1686
@<TRIPOS>BOND
     1    15    16    1
     2    16     6    1
     3     6     7   ar
     4     7     8   ar
     5     8     9   ar
     6     9    10   ar
     7    10    11   ar
     8    11     1    1
     9     1     2   ar
    10     2     3   ar
    11     3    21    1
    12    21    22    1
    13    22    23    1
    14    23    24   ar
    15    24    25   ar
    16    25    26   ar
    17    26    27   ar
    18    27    28   ar
    19    28    29    1
    20    29    30    1
    21    29    31    2
    22    29    32    2
    23     3     4   ar
    24     4    19    1
    25    19    20    3
    26     4     5   ar
    27    11    12   ar
    28    12    13   ar
    29    13    14   ar
    30    14    17    1
    31    17    18    1
    32    14     6   ar
    33    12     8   ar
    34     5     1   ar
    35    28    23   ar
@<TRIPOS>MOLECULE
*****
 32 35 0 0 0
SMALL
GASTEIGER

@<TRIPOS>ATOM
      1 C          62.1142   89.8121   11.1592 C.ar    1  UNL1        0.0992
      2 C          63.3353   90.6661   10.9869 C.ar    1  UNL1        0.0624
      3 C          63.9186   90.9202   12.3452 C.ar    1  UNL1        0.1566
      4 C          63.0580   90.2234   13.3571 C.ar    1  UNL1        0.1330
      5 S          61.9429   89.5385   12.6240 S.2     1  UNL1       -0.0559
      6 C          61.1308   85.6076    7.5549 C.ar    1  UNL1        0.1740
      7 C          60.1425   86.7290    7.4285 C.ar    1  UNL1        0.0607
      8 C          60.2572   87.9331    8.3155 C.ar    1  UNL1        0.1023
      9 N          59.4367   89.1845    8.4200 N.ar    1  UNL1       -0.2235
     10 C          60.0325   90.0406    9.4980 C.ar    1  UNL1        0.1831
     11 N          61.2212   89.3185   10.0597 N.ar    1  UNL1       -0.2822
     12 C          61.3601   88.0159    9.3289 C.ar    1  UNL1        0.0867
     13 C          62.3482   86.8945    9.4552 C.ar    1  UNL1        0.0591
     14 C          62.2336   85.6904    8.5682 C.ar    1  UNL1        0.1739
     15 C          61.9009   84.2718    5.4637 C.3     1  UNL1        0.2526
     16 O          61.0161   84.4033    6.6678 O.3     1  UNL1       -0.4683
     17 O          63.2218   84.5690    8.6946 O.3     1  UNL1       -0.4683
     18 C          63.5295   83.9888   10.0431 C.3     1  UNL1        0.2526
     19 C          63.2746   90.2131   14.8413 C.1     1  UNL1        0.1101
     20 N          63.4912   90.2029   16.3256 N.1     1  UNL1       -0.1902
     21 O          65.1469   91.7292   12.6400 O.3     1  UNL1       -0.4693
     22 C          65.3707   93.0357   11.9379 C.3     1  UNL1        0.2333
     23 C          66.4888   93.1731   10.9475 C.ar    1  UNL1        0.0383
     24 C          67.3562   91.9921   10.6269 C.ar    1  UNL1        0.0006
     25 C          68.4743   92.1296    9.6364 C.ar    1  UNL1       -0.0001
     26 C          68.7249   93.4481    8.9665 C.ar    1  UNL1        0.0013
     27 C          67.8574   94.6290    9.2871 C.ar    1  UNL1        0.0181
     28 C          66.7394   94.4916   10.2775 C.ar    1  UNL1        0.1052
     29 S          65.8720   95.6726   10.5980 S.O2    1  UNL1        0.0103
     30 C          65.0044   96.8536   10.9186 C.3     1  UNL1        0.1816
     31 O          66.2300   95.5419   12.0488 O.2     1  UNL1       -0.1686
     32 O          65.5138   95.8033    9.1473 O.2     1  UNL1       -0.1686
@<TRIPOS>BOND
     1    15    16    1
     2    16     6    1
     3     6     7   ar
     4     7     8   ar
     5     8     9   ar
     6     9    10   ar
     7    10    11   ar
     8    11     1    1
     9     1     2   ar
    10     2     3   ar
    11     3    21    1
    12    21    22    1
    13    22    23    1
    14    23    24   ar
    15    24    25   ar
    16    25    26   ar
    17    26    27   ar
    18    27    28   ar
    19    28    29    1
    20    29    30    1
    21    29    31    2
    22    29    32    2
    23     3     4   ar
    24     4    19    1
    25    19    20    3
    26     4     5   ar
    27    11    12   ar
    28    12    13   ar
    29    13    14   ar
    30    14    17    1
    31    17    18    1
    32    14     6   ar
    33    12     8   ar
    34     5     1   ar
    35    28    23   ar
