@<TRIPOS>MOLECULE
*****
 36 39 0 0 0
SMALL
GASTEIGER

@<TRIPOS>ATOM
      1 C          65.8746   93.1549   12.7406 C.ar    1  UNL1        0.0930
      2 C          66.4095   93.8240   13.9720 C.ar    1  UNL1        0.1067
      3 N          66.0224   92.9906   15.1575 N.ar    1  UNL1       -0.2252
      4 C          65.2483   91.8064   14.6589 C.ar    1  UNL1        0.1586
      5 N          64.6148   90.6488   15.3721 N.ar    1  UNL1       -0.3349
      6 C          63.8900   89.5928   14.5914 C.ar    1  UNL1        0.0945
      7 C          63.7987   89.6944   13.0977 C.ar    1  UNL1        0.1176
      8 N          64.4321   90.8520   12.3845 N.ar    1  UNL1       -0.2390
      9 C          65.1569   91.9080   13.1651 C.ar    1  UNL1        0.1210
     10 H          64.6748   90.5822   16.3525 H       1  UNL1        0.1675
     11 C          63.0738   88.6383   12.3171 C.ar    1  UNL1        0.1213
     12 N          63.1858   87.1568   12.5232 N.ar    1  UNL1       -0.1677
     13 N          62.2910   86.4811   11.5268 N.ar    1  UNL1       -0.2507
     14 C          61.6258   87.5452   10.7050 C.ar    1  UNL1        0.0816
     15 C          60.6420   87.4724    9.5750 C.ar    1  UNL1        0.0484
     16 C          60.1421   88.7326    8.9334 C.ar    1  UNL1        0.1416
     17 F          59.1583   88.6597    7.8033 F       1  UNL1       -0.2041
     18 C          60.6260   90.0659    9.4218 C.ar    1  UNL1        0.0298
     19 C          61.6097   90.1387   10.5518 C.ar    1  UNL1        0.0054
     20 C          62.1096   88.8784   11.1934 C.ar    1  UNL1        0.0383
     21 C          62.0955   85.0014   11.3784 C.3     1  UNL1        0.1300
     22 C          63.0495   84.0491   12.0367 C.3     1  UNL1        0.0582
     23 C          62.8885   83.7105   13.4890 C.3     1  UNL1        0.1417
     24 O          62.4906   84.7753   14.4678 O.3     1  UNL1       -0.3818
     25 H          62.3780   85.6180   14.0008 H       1  UNL1        0.2104
     26 C          63.1255   82.3071   13.9626 C.3     1  UNL1        0.1663
     27 O          62.1008   81.6205   14.8163 O.3     1  UNL1       -0.3795
     28 H          62.0380   82.0723   15.6724 H       1  UNL1        0.2105
     29 N          67.2040   94.5039   10.9620 N.am    1  UNL1       -0.3039
     30 C          66.0300   93.6465   11.3320 C.2     1  UNL1        0.2488
     31 O          65.0116   93.2807   10.2933 O.2     1  UNL1       -0.2700
     32 H          67.8725   94.7440   11.6438 H       1  UNL1        0.1496
     33 C          68.0944   93.7376    9.1957 C.3     1  UNL1        0.0196
     34 C          67.3595   94.9954    9.5534 C.3     1  UNL1        0.0572
     35 C          66.6245   96.2531    9.9112 C.3     1  UNL1        0.0196
     36 C          67.5149   95.4869    8.1448 C.3     1  UNL1        0.0196
@<TRIPOS>BOND
     1    33    34    1
     2    34    35    1
     3    34    36    1
     4    34    29    1
     5    29    30   am
     6    30    31    2
     7    30     1    1
     8     1     2   ar
     9     2     3   ar
    10     3     4   ar
    11     4     5   ar
    12     5     6   ar
    13     6     7   ar
    14     7    11    1
    15    11    12   ar
    16    12    13   ar
    17    13    21    1
    18    21    22    1
    19    22    23    1
    20    23    24    1
    21    23    26    1
    22    26    27    1
    23    13    14   ar
    24    14    15   ar
    25    15    16   ar
    26    16    17    1
    27    16    18   ar
    28    18    19   ar
    29    19    20   ar
    30     7     8   ar
    31     8     9   ar
    32     9     1   ar
    33     9     4    1
    34    20    11   ar
    35    20    14   ar
    36    29    32    1
    37     5    10    1
    38    24    25    1
    39    27    28    1
@<TRIPOS>MOLECULE
*****
 36 39 0 0 0
SMALL
GASTEIGER

@<TRIPOS>ATOM
      1 C          62.0836   86.7852   11.4078 C.ar    1  UNL1        0.0930
      2 C          60.9941   86.2482   10.5277 C.ar    1  UNL1        0.1067
      3 N          60.5548   87.3500    9.6094 N.ar    1  UNL1       -0.2252
      4 C          61.3728   88.5678    9.9220 C.ar    1  UNL1        0.1586
      5 N          61.3794   89.9495    9.3381 N.ar    1  UNL1       -0.3349
      6 C          62.3308   90.9821    9.8657 C.ar    1  UNL1        0.0945
      7 C          63.2757   90.6330   10.9772 C.ar    1  UNL1        0.1176
      8 N          63.2691   89.2514   11.5611 N.ar    1  UNL1       -0.2390
      9 C          62.3177   88.2188   11.0335 C.ar    1  UNL1        0.1210
     10 H          60.7592   90.1785    8.6086 H       1  UNL1        0.1675
     11 C          64.2272   91.6657   11.5048 C.ar    1  UNL1        0.1213
     12 N          64.7879   92.8238   10.7337 N.ar    1  UNL1       -0.1677
     13 N          65.6922   93.5955   11.6484 N.ar    1  UNL1       -0.2507
     14 C          65.6903   92.9143   12.9849 C.ar    1  UNL1        0.0816
     15 C          66.3962   93.2260   14.2712 C.ar    1  UNL1        0.0484
     16 C          66.1966   92.3451   15.4687 C.ar    1  UNL1        0.1416
     17 F          66.9024   92.6568   16.7551 F       1  UNL1       -0.2041
     18 C          65.2911   91.1525   15.3800 C.ar    1  UNL1        0.0298
     19 C          64.5853   90.8408   14.0937 C.ar    1  UNL1        0.0054
     20 C          64.7849   91.7217   12.8961 C.ar    1  UNL1        0.0383
     21 C          66.4630   94.8312   11.2897 C.3     1  UNL1        0.1300
     22 C          66.3876   95.3844    9.8975 C.3     1  UNL1        0.0582
     23 C          67.5189   95.1592    8.9387 C.3     1  UNL1        0.1417
     24 O          68.0307   96.2945    8.1025 O.3     1  UNL1       -0.3818
     25 H          67.5248   97.0974    8.3030 H       1  UNL1        0.2104
     26 C          68.1384   93.7986    8.8160 C.3     1  UNL1        0.1663
     27 O          69.2213   93.3792    9.7655 O.3     1  UNL1       -0.3795
     28 H          70.0075   93.9290    9.6225 H       1  UNL1        0.2105
     29 N          62.6429   84.5357   12.5814 N.am    1  UNL1       -0.3039
     30 C          62.8113   86.0225   12.4749 C.2     1  UNL1        0.2488
     31 O          63.7073   86.7465   13.4356 O.2     1  UNL1       -0.2700
     32 H          62.0548   84.0605   11.9509 H       1  UNL1        0.1496
     33 C          62.2589   84.0622   14.6132 C.3     1  UNL1        0.0196
     34 C          63.3706   83.7731   13.6486 C.3     1  UNL1        0.0572
     35 C          64.4823   83.4840   12.6839 C.3     1  UNL1        0.0196
     36 C          64.0983   83.0104   14.7156 C.3     1  UNL1        0.0196
@<TRIPOS>BOND
     1    33    34    1
     2    34    35    1
     3    34    36    1
     4    34    29    1
     5    29    30   am
     6    30    31    2
     7    30     1    1
     8     1     2   ar
     9     2     3   ar
    10     3     4   ar
    11     4     5   ar
    12     5     6   ar
    13     6     7   ar
    14     7    11    1
    15    11    12   ar
    16    12    13   ar
    17    13    21    1
    18    21    22    1
    19    22    23    1
    20    23    24    1
    21    23    26    1
    22    26    27    1
    23    13    14   ar
    24    14    15   ar
    25    15    16   ar
    26    16    17    1
    27    16    18   ar
    28    18    19   ar
    29    19    20   ar
    30     7     8   ar
    31     8     9   ar
    32     9     1   ar
    33     9     4    1
    34    20    11   ar
    35    20    14   ar
    36    29    32    1
    37     5    10    1
    38    24    25    1
    39    27    28    1
@<TRIPOS>MOLECULE
*****
 36 39 0 0 0
SMALL
GASTEIGER

@<TRIPOS>ATOM
      1 C          64.1505   87.8428   14.1606 C.ar    1  UNL1        0.0930
      2 C          64.8087   88.8009   15.1087 C.ar    1  UNL1        0.1067
      3 N          64.5449   90.1935   14.6177 N.ar    1  UNL1       -0.2252
      4 C          63.7237   90.0961   13.3663 C.ar    1  UNL1        0.1586
      5 N          63.1664   91.1426   12.4475 N.ar    1  UNL1       -0.3349
      6 C          62.3654   90.7363   11.2462 C.ar    1  UNL1        0.0945
      7 C          62.1216   89.2834   10.9637 C.ar    1  UNL1        0.1176
      8 N          62.6789   88.2369   11.8825 N.ar    1  UNL1       -0.2390
      9 C          63.4800   88.6433   13.0838 C.ar    1  UNL1        0.1210
     10 H          63.3264   92.0962   12.6329 H       1  UNL1        0.1675
     11 C          61.3205   88.8771    9.7623 C.ar    1  UNL1        0.1213
     12 N          60.2638   89.7006    9.0875 N.ar    1  UNL1       -0.1677
     13 N          59.7257   88.9085    7.9330 N.ar    1  UNL1       -0.2507
     14 C          60.4497   87.5954    7.8943 C.ar    1  UNL1        0.0816
     15 C          60.3389   86.4148    6.9757 C.ar    1  UNL1        0.0484
     16 C          61.2136   85.2149    7.1875 C.ar    1  UNL1        0.1416
     17 F          61.1028   84.0343    6.2688 F       1  UNL1       -0.2041
     18 C          62.1993   85.1955    8.3181 C.ar    1  UNL1        0.0298
     19 C          62.3101   86.3760    9.2368 C.ar    1  UNL1        0.0054
     20 C          61.4354   87.5760    9.0249 C.ar    1  UNL1        0.0383
     21 C          58.6520   89.3517    6.9839 C.3     1  UNL1        0.1300
     22 C          59.0196   90.0568    5.7121 C.3     1  UNL1        0.0582
     23 C          58.2758   91.2915    5.2972 C.3     1  UNL1        0.1417
     24 O          58.9619   92.6251    5.3243 O.3     1  UNL1       -0.3818
     25 H          59.8749   92.5128    5.6318 H       1  UNL1        0.2104
     26 C          56.8458   91.1926    4.8551 C.3     1  UNL1        0.1663
     27 O          55.8747   90.3591    5.6377 O.3     1  UNL1       -0.3795
     28 H          56.1283   89.4248    5.5772 H       1  UNL1        0.2105
     29 N          63.0657   85.5407   13.6371 N.am    1  UNL1       -0.3039
     30 C          64.1610   86.3468   14.2702 C.2     1  UNL1        0.2488
     31 O          65.2667   85.6569   15.0126 O.2     1  UNL1       -0.2700
     32 H          62.3400   85.9935   13.1498 H       1  UNL1        0.1496
     33 C          62.3394   84.1352   15.0502 C.3     1  UNL1        0.0196
     34 C          63.0762   84.0448   13.7467 C.3     1  UNL1        0.0572
     35 C          63.8130   83.9545   12.4432 C.3     1  UNL1        0.0196
     36 C          63.0867   82.5489   13.8563 C.3     1  UNL1        0.0196
@<TRIPOS>BOND
     1    33    34    1
     2    34    35    1
     3    34    36    1
     4    34    29    1
     5    29    30   am
     6    30    31    2
     7    30     1    1
     8     1     2   ar
     9     2     3   ar
    10     3     4   ar
    11     4     5   ar
    12     5     6   ar
    13     6     7   ar
    14     7    11    1
    15    11    12   ar
    16    12    13   ar
    17    13    21    1
    18    21    22    1
    19    22    23    1
    20    23    24    1
    21    23    26    1
    22    26    27    1
    23    13    14   ar
    24    14    15   ar
    25    15    16   ar
    26    16    17    1
    27    16    18   ar
    28    18    19   ar
    29    19    20   ar
    30     7     8   ar
    31     8     9   ar
    32     9     1   ar
    33     9     4    1
    34    20    11   ar
    35    20    14   ar
    36    29    32    1
    37     5    10    1
    38    24    25    1
    39    27    28    1
@<TRIPOS>MOLECULE
*****
 36 39 0 0 0
SMALL
GASTEIGER

@<TRIPOS>ATOM
      1 C          65.9015   93.2256   12.6394 C.ar    1  UNL1        0.0930
      2 C          66.5060   93.8300   13.8720 C.ar    1  UNL1        0.1067
      3 N          66.1442   92.9607   15.0396 N.ar    1  UNL1       -0.2252
      4 C          65.3161   91.8190   14.5287 C.ar    1  UNL1        0.1586
      5 N          64.6794   90.6516   15.2226 N.ar    1  UNL1       -0.3349
      6 C          63.8926   89.6479   14.4330 C.ar    1  UNL1        0.0945
      7 C          63.7426   89.8116   12.9495 C.ar    1  UNL1        0.1176
      8 N          64.3794   90.9790   12.2556 N.ar    1  UNL1       -0.2390
      9 C          65.1662   91.9827   13.0452 C.ar    1  UNL1        0.1210
     10 H          64.7778   90.5441   16.1962 H       1  UNL1        0.1675
     11 C          62.9558   88.8078   12.1599 C.ar    1  UNL1        0.1213
     12 N          61.9840   89.1172   11.0600 N.ar    1  UNL1       -0.1677
     13 N          61.4303   87.8190   10.5519 N.ar    1  UNL1       -0.2507
     14 C          62.0599   86.7073   11.3379 C.ar    1  UNL1        0.0816
     15 C          61.8965   85.2175   11.2770 C.ar    1  UNL1        0.0484
     16 C          62.6759   84.3388   12.2098 C.ar    1  UNL1        0.1416
     17 F          62.5125   82.8489   12.1490 F       1  UNL1       -0.2041
     18 C          63.6188   84.9498   13.2037 C.ar    1  UNL1        0.0298
     19 C          63.7822   86.4397   13.2646 C.ar    1  UNL1        0.0054
     20 C          63.0027   87.3184   12.3316 C.ar    1  UNL1        0.0383
     21 C          60.4237   87.6604    9.4512 C.3     1  UNL1        0.1300
     22 C          60.0629   88.8344    8.5900 C.3     1  UNL1        0.0582
     23 C          59.2416   88.6315    7.3513 C.3     1  UNL1        0.1417
     24 O          58.6638   87.2810    7.0474 O.3     1  UNL1       -0.3818
     25 H          58.9141   86.6574    7.7469 H       1  UNL1        0.2104
     26 C          58.9980   89.7791    6.4167 C.3     1  UNL1        0.1663
     27 O          60.1329   90.3513    5.6198 O.3     1  UNL1       -0.3795
     28 H          60.7736   90.7639    6.2200 H       1  UNL1        0.2105
     29 N          67.1508   94.6763   10.8829 N.am    1  UNL1       -0.3039
     30 C          66.0129   93.7686   11.2456 C.2     1  UNL1        0.2488
     31 O          64.9864   93.4041   10.2144 O.2     1  UNL1       -0.2700
     32 H          67.8246   94.9155   11.5597 H       1  UNL1        0.1496
     33 C          66.5522   96.4687    9.9193 C.3     1  UNL1        0.0196
     34 C          67.2622   95.2193    9.4891 C.3     1  UNL1        0.0572
     35 C          67.9721   93.9699    9.0590 C.3     1  UNL1        0.0196
     36 C          67.3735   95.7623    8.0954 C.3     1  UNL1        0.0196
@<TRIPOS>BOND
     1    33    34    1
     2    34    35    1
     3    34    36    1
     4    34    29    1
     5    29    30   am
     6    30    31    2
     7    30     1    1
     8     1     2   ar
     9     2     3   ar
    10     3     4   ar
    11     4     5   ar
    12     5     6   ar
    13     6     7   ar
    14     7    11    1
    15    11    12   ar
    16    12    13   ar
    17    13    21    1
    18    21    22    1
    19    22    23    1
    20    23    24    1
    21    23    26    1
    22    26    27    1
    23    13    14   ar
    24    14    15   ar
    25    15    16   ar
    26    16    17    1
    27    16    18   ar
    28    18    19   ar
    29    19    20   ar
    30     7     8   ar
    31     8     9   ar
    32     9     1   ar
    33     9     4    1
    34    20    11   ar
    35    20    14   ar
    36    29    32    1
    37     5    10    1
    38    24    25    1
    39    27    28    1
@<TRIPOS>MOLECULE
*****
 36 39 0 0 0
SMALL
GASTEIGER

@<TRIPOS>ATOM
      1 C          63.8966   85.3564   14.3247 C.ar    1  UNL1        0.0930
      2 C          64.6055   86.0368   15.4580 C.ar    1  UNL1        0.1067
      3 N          64.5822   87.5141   15.1990 N.ar    1  UNL1       -0.2252
      4 C          63.8588   87.7467   13.9057 C.ar    1  UNL1        0.1586
      5 N          63.5312   89.0005   13.1504 N.ar    1  UNL1       -0.3349
      6 C          62.7799   88.9207   11.8546 C.ar    1  UNL1        0.0945
      7 C          62.3561   87.5871   11.3142 C.ar    1  UNL1        0.1176
      8 N          62.6837   86.3333   12.0696 N.ar    1  UNL1       -0.2390
      9 C          63.4350   86.4131   13.3653 C.ar    1  UNL1        0.1210
     10 H          63.8093   89.8758   13.5050 H       1  UNL1        0.1675
     11 C          61.6048   87.5074   10.0183 C.ar    1  UNL1        0.1213
     12 N          60.5337   88.4526    9.5606 N.ar    1  UNL1       -0.1677
     13 N          60.0595   87.9979    8.2121 N.ar    1  UNL1       -0.2507
     14 C          60.8375   86.7716    7.8365 C.ar    1  UNL1        0.0816
     15 C          60.7998   85.8919    6.6221 C.ar    1  UNL1        0.0484
     16 C          61.7169   84.7091    6.5241 C.ar    1  UNL1        0.1416
     17 F          61.6791   83.8293    5.3097 F       1  UNL1       -0.2041
     18 C          62.6720   84.4059    7.6404 C.ar    1  UNL1        0.0298
     19 C          62.7097   85.2857    8.8547 C.ar    1  UNL1        0.0054
     20 C          61.7925   86.4685    8.9528 C.ar    1  UNL1        0.0383
     21 C          58.9944   88.6541    7.3846 C.3     1  UNL1        0.1300
     22 C          59.3760   89.5875    6.2741 C.3     1  UNL1        0.0582
     23 C          58.3824   90.5862    5.7590 C.3     1  UNL1        0.1417
     24 O          56.9124   90.3164    5.8874 O.3     1  UNL1       -0.3818
     25 H          56.7777   89.4602    6.3229 H       1  UNL1        0.2104
     26 C          58.8588   91.8546    5.1156 C.3     1  UNL1        0.1663
     27 O          58.6330   92.0831    3.6503 O.3     1  UNL1       -0.3795
     28 H          59.1477   91.4388    3.1395 H       1  UNL1        0.2105
     29 N          62.7773   83.3541   13.1046 N.am    1  UNL1       -0.3039
     30 C          63.6860   83.8786   14.1767 C.2     1  UNL1        0.2488
     31 O          64.3841   82.9253   15.1006 O.2     1  UNL1       -0.2700
     32 H          62.3190   83.9798   12.4982 H       1  UNL1        0.1496
     33 C          63.4550   81.8710   11.7479 C.3     1  UNL1        0.0196
     34 C          62.5667   81.8764   12.9566 C.3     1  UNL1        0.0572
     35 C          61.6785   81.8819   14.1653 C.3     1  UNL1        0.0196
     36 C          62.3562   80.3987   12.8086 C.3     1  UNL1        0.0196
@<TRIPOS>BOND
     1    33    34    1
     2    34    35    1
     3    34    36    1
     4    34    29    1
     5    29    30   am
     6    30    31    2
     7    30     1    1
     8     1     2   ar
     9     2     3   ar
    10     3     4   ar
    11     4     5   ar
    12     5     6   ar
    13     6     7   ar
    14     7    11    1
    15    11    12   ar
    16    12    13   ar
    17    13    21    1
    18    21    22    1
    19    22    23    1
    20    23    24    1
    21    23    26    1
    22    26    27    1
    23    13    14   ar
    24    14    15   ar
    25    15    16   ar
    26    16    17    1
    27    16    18   ar
    28    18    19   ar
    29    19    20   ar
    30     7     8   ar
    31     8     9   ar
    32     9     1   ar
    33     9     4    1
    34    20    11   ar
    35    20    14   ar
    36    29    32    1
    37     5    10    1
    38    24    25    1
    39    27    28    1
@<TRIPOS>MOLECULE
*****
 36 39 0 0 0
SMALL
GASTEIGER

@<TRIPOS>ATOM
      1 C          61.9409   86.3126   11.1568 C.ar    1  UNL1        0.0930
      2 C          60.8471   85.9823   10.1850 C.ar    1  UNL1        0.1067
      3 N          60.3884   87.2620    9.5509 N.ar    1  UNL1       -0.2252
      4 C          61.1986   88.3832   10.1310 C.ar    1  UNL1        0.1586
      5 N          61.1867   89.8625    9.8836 N.ar    1  UNL1       -0.3349
      6 C          62.1342   90.7552   10.6287 C.ar    1  UNL1        0.0945
      7 C          63.0937   90.1685   11.6212 C.ar    1  UNL1        0.1176
      8 N          63.1057   88.6891   11.8686 N.ar    1  UNL1       -0.2390
      9 C          62.1581   87.7964   11.1235 C.ar    1  UNL1        0.1210
     10 H          60.5569   90.2476    9.2322 H       1  UNL1        0.1675
     11 C          64.0413   91.0612   12.3664 C.ar    1  UNL1        0.1213
     12 N          64.4372   90.9205   13.8064 N.ar    1  UNL1       -0.1677
     13 N          65.3999   92.0236   14.1324 N.ar    1  UNL1       -0.2507
     14 C          65.5990   92.8461   12.8938 C.ar    1  UNL1        0.0816
     15 C          66.4364   94.0599   12.6188 C.ar    1  UNL1        0.0484
     16 C          66.4341   94.6787   11.2525 C.ar    1  UNL1        0.1416
     17 F          67.2716   95.8925   10.9776 F       1  UNL1       -0.2041
     18 C          65.5945   94.0839   10.1611 C.ar    1  UNL1        0.0298
     19 C          64.7571   92.8702   10.4360 C.ar    1  UNL1        0.0054
     20 C          64.7593   92.2513   11.8024 C.ar    1  UNL1        0.0383
     21 C          66.0494   92.2624   15.4632 C.3     1  UNL1        0.1300
     22 C          67.4778   91.8609   15.6834 C.3     1  UNL1        0.0582
     23 C          68.5876   92.7851   15.2783 C.3     1  UNL1        0.1417
     24 O          68.7972   94.0741   16.0161 O.3     1  UNL1       -0.3818
     25 H          68.1348   94.1551   16.7201 H       1  UNL1        0.2104
     26 C          69.4879   92.4202   14.1353 C.3     1  UNL1        0.1663
     27 O          68.9694   91.5686   13.0145 O.3     1  UNL1       -0.3795
     28 H          68.7655   90.6816   13.3500 H       1  UNL1        0.2105
     29 N          62.6525   83.8691   11.6793 N.am    1  UNL1       -0.3039
     30 C          62.6865   85.3314   12.0120 C.2     1  UNL1        0.2488
     31 O          63.4662   85.8124   13.1997 O.2     1  UNL1       -0.2700
     32 H          62.1408   83.5533   10.8998 H       1  UNL1        0.1496
     33 C          62.2554   82.8662   13.5059 C.3     1  UNL1        0.0196
     34 C          63.3982   82.8879   12.5345 C.3     1  UNL1        0.0572
     35 C          64.5409   82.9096   11.5630 C.3     1  UNL1        0.0196
     36 C          64.1437   81.9067   13.3896 C.3     1  UNL1        0.0196
@<TRIPOS>BOND
     1    33    34    1
     2    34    35    1
     3    34    36    1
     4    34    29    1
     5    29    30   am
     6    30    31    2
     7    30     1    1
     8     1     2   ar
     9     2     3   ar
    10     3     4   ar
    11     4     5   ar
    12     5     6   ar
    13     6     7   ar
    14     7    11    1
    15    11    12   ar
    16    12    13   ar
    17    13    21    1
    18    21    22    1
    19    22    23    1
    20    23    24    1
    21    23    26    1
    22    26    27    1
    23    13    14   ar
    24    14    15   ar
    25    15    16   ar
    26    16    17    1
    27    16    18   ar
    28    18    19   ar
    29    19    20   ar
    30     7     8   ar
    31     8     9   ar
    32     9     1   ar
    33     9     4    1
    34    20    11   ar
    35    20    14   ar
    36    29    32    1
    37     5    10    1
    38    24    25    1
    39    27    28    1
@<TRIPOS>MOLECULE
*****
 36 39 0 0 0
SMALL
GASTEIGER

@<TRIPOS>ATOM
      1 C          63.3173   85.1163   15.6974 C.ar    1  UNL1        0.0930
      2 C          62.8072   84.5863   17.0047 C.ar    1  UNL1        0.1067
      3 N          62.5882   85.7515   17.9234 N.ar    1  UNL1       -0.2252
      4 C          62.9630   87.0017   17.1840 C.ar    1  UNL1        0.1586
      5 N          62.9521   88.4468   17.5858 N.ar    1  UNL1       -0.3349
      6 C          63.3918   89.4993   16.6117 C.ar    1  UNL1        0.0945
      7 C          63.8424   89.1067   15.2359 C.ar    1  UNL1        0.1176
      8 N          63.8533   87.6615   14.8342 N.ar    1  UNL1       -0.2390
      9 C          63.4135   86.6091   15.8083 C.ar    1  UNL1        0.1210
     10 H          62.6564   88.7045   18.4888 H       1  UNL1        0.1675
     11 C          64.2822   90.1593   14.2618 C.ar    1  UNL1        0.1213
     12 N          65.3187   91.2143   14.5121 N.ar    1  UNL1       -0.1677
     13 N          65.4398   92.0487   13.2715 N.ar    1  UNL1       -0.2507
     14 C          64.4780   91.5093   12.2545 C.ar    1  UNL1        0.0816
     15 C          64.1613   91.9306   10.8501 C.ar    1  UNL1        0.0484
     16 C          63.1292   91.1843   10.0579 C.ar    1  UNL1        0.1416
     17 F          62.8125   91.6057    8.6535 F       1  UNL1       -0.2041
     18 C          62.4138   90.0166   10.6700 C.ar    1  UNL1        0.0298
     19 C          62.7305   89.5952   12.0743 C.ar    1  UNL1        0.0054
     20 C          63.7626   90.3416   12.8666 C.ar    1  UNL1        0.0383
     21 C          66.3608   93.2172   13.0812 C.3     1  UNL1        0.1300
     22 C          66.8402   93.9956   14.2704 C.3     1  UNL1        0.0582
     23 C          67.3496   93.2745   15.4831 C.3     1  UNL1        0.1417
     24 O          66.4364   93.0267   16.6470 O.3     1  UNL1       -0.3818
     25 H          65.5595   93.3937   16.4538 H       1  UNL1        0.2104
     26 C          68.7721   92.8013   15.5318 C.3     1  UNL1        0.1663
     27 O          69.4458   92.3201   14.2809 O.3     1  UNL1       -0.3795
     28 H          69.0148   91.5073   13.9737 H       1  UNL1        0.2105
     29 N          62.5937   83.5747   13.7352 N.am    1  UNL1       -0.3039
     30 C          63.6693   84.2972   14.4910 C.2     1  UNL1        0.2488
     31 O          65.0967   84.2007   14.0405 O.2     1  UNL1       -0.2700
     32 H          61.6568   83.6380   14.0308 H       1  UNL1        0.1496
     33 C          62.7631   83.9622   11.6565 C.3     1  UNL1        0.0196
     34 C          62.9457   82.7557   12.5288 C.3     1  UNL1        0.0572
     35 C          63.1284   81.5492   13.4012 C.3     1  UNL1        0.0196
     36 C          63.2977   81.9367   11.3225 C.3     1  UNL1        0.0196
@<TRIPOS>BOND
     1    33    34    1
     2    34    35    1
     3    34    36    1
     4    34    29    1
     5    29    30   am
     6    30    31    2
     7    30     1    1
     8     1     2   ar
     9     2     3   ar
    10     3     4   ar
    11     4     5   ar
    12     5     6   ar
    13     6     7   ar
    14     7    11    1
    15    11    12   ar
    16    12    13   ar
    17    13    21    1
    18    21    22    1
    19    22    23    1
    20    23    24    1
    21    23    26    1
    22    26    27    1
    23    13    14   ar
    24    14    15   ar
    25    15    16   ar
    26    16    17    1
    27    16    18   ar
    28    18    19   ar
    29    19    20   ar
    30     7     8   ar
    31     8     9   ar
    32     9     1   ar
    33     9     4    1
    34    20    11   ar
    35    20    14   ar
    36    29    32    1
    37     5    10    1
    38    24    25    1
    39    27    28    1
@<TRIPOS>MOLECULE
*****
 36 39 0 0 0
SMALL
GASTEIGER

@<TRIPOS>ATOM
      1 C          63.4047   85.3064   15.2604 C.ar    1  UNL1        0.0930
      2 C          62.7140   84.6957   16.4435 C.ar    1  UNL1        0.1067
      3 N          62.3828   85.7973   17.4063 N.ar    1  UNL1       -0.2252
      4 C          62.8689   87.0887   16.8182 C.ar    1  UNL1        0.1586
      5 N          62.8180   88.5017   17.3190 N.ar    1  UNL1       -0.3349
      6 C          63.3988   89.6113   16.4935 C.ar    1  UNL1        0.0945
      7 C          64.0304   89.3079   15.1673 C.ar    1  UNL1        0.1176
      8 N          64.0813   87.8950   14.6664 N.ar    1  UNL1       -0.2390
      9 C          63.5005   86.7854   15.4919 C.ar    1  UNL1        0.1210
     10 H          62.4035   88.7008   18.1895 H       1  UNL1        0.1675
     11 C          64.6111   90.4177   14.3418 C.ar    1  UNL1        0.1213
     12 N          64.2954   90.7050   12.9038 N.ar    1  UNL1       -0.1677
     13 N          65.0986   91.8997   12.4826 N.ar    1  UNL1       -0.2507
     14 C          65.9108   92.3508   13.6603 C.ar    1  UNL1        0.0816
     15 C          66.8859   93.4772   13.8349 C.ar    1  UNL1        0.0484
     16 C          67.5596   93.6876   15.1584 C.ar    1  UNL1        0.1416
     17 F          68.5346   94.8141   15.3330 F       1  UNL1       -0.2041
     18 C          67.2583   92.7716   16.3075 C.ar    1  UNL1        0.0298
     19 C          66.2832   91.6452   16.1329 C.ar    1  UNL1        0.0054
     20 C          65.6095   91.4348   14.8093 C.ar    1  UNL1        0.0383
     21 C          65.0910   92.5324   11.1226 C.3     1  UNL1        0.1300
     22 C          66.3848   92.7966   10.4111 C.3     1  UNL1        0.0582
     23 C          66.8294   94.2074   10.1623 C.3     1  UNL1        0.1417
     24 O          68.2279   94.4816    9.6944 O.3     1  UNL1       -0.3818
     25 H          68.7087   93.6440    9.6040 H       1  UNL1        0.2104
     26 C          65.8753   95.3440   10.3813 C.3     1  UNL1        0.1663
     27 O          65.7389   95.9568   11.7437 O.3     1  UNL1       -0.3795
     28 H          65.3590   95.3060   12.3544 H       1  UNL1        0.2105
     29 N          62.9426   83.9149   13.1155 N.am    1  UNL1       -0.3039
     30 C          63.9109   84.5679   14.0569 C.2     1  UNL1        0.2488
     31 O          65.3853   84.4822   13.7947 O.2     1  UNL1       -0.2700
     32 H          61.9749   83.9712   13.2875 H       1  UNL1        0.1496
     33 C          63.1547   84.3718   11.0549 C.3     1  UNL1        0.0196
     34 C          63.4488   83.1764   11.9120 C.3     1  UNL1        0.0572
     35 C          63.7427   81.9811   12.7692 C.3     1  UNL1        0.0196
     36 C          63.9549   82.4379   10.7086 C.3     1  UNL1        0.0196
@<TRIPOS>BOND
     1    33    34    1
     2    34    35    1
     3    34    36    1
     4    34    29    1
     5    29    30   am
     6    30    31    2
     7    30     1    1
     8     1     2   ar
     9     2     3   ar
    10     3     4   ar
    11     4     5   ar
    12     5     6   ar
    13     6     7   ar
    14     7    11    1
    15    11    12   ar
    16    12    13   ar
    17    13    21    1
    18    21    22    1
    19    22    23    1
    20    23    24    1
    21    23    26    1
    22    26    27    1
    23    13    14   ar
    24    14    15   ar
    25    15    16   ar
    26    16    17    1
    27    16    18   ar
    28    18    19   ar
    29    19    20   ar
    30     7     8   ar
    31     8     9   ar
    32     9     1   ar
    33     9     4    1
    34    20    11   ar
    35    20    14   ar
    36    29    32    1
    37     5    10    1
    38    24    25    1
    39    27    28    1
@<TRIPOS>MOLECULE
*****
 36 39 0 0 0
SMALL
GASTEIGER

@<TRIPOS>ATOM
      1 C          63.0098   83.6883   13.1477 C.ar    1  UNL1        0.0930
      2 C          62.8163   82.5307   14.0819 C.ar    1  UNL1        0.1067
      3 N          62.9914   83.0328   15.4845 N.ar    1  UNL1       -0.2252
      4 C          63.2931   84.5006   15.4172 C.ar    1  UNL1        0.1586
      5 N          63.5590   85.5205   16.4844 N.ar    1  UNL1       -0.3349
      6 C          63.8362   86.9456   16.1074 C.ar    1  UNL1        0.0945
      7 C          63.8476   87.3508   14.6631 C.ar    1  UNL1        0.1176
      8 N          63.5817   86.3308   13.5960 N.ar    1  UNL1       -0.2390
      9 C          63.3045   84.9057   13.9730 C.ar    1  UNL1        0.1210
     10 H          63.5516   85.2546   17.4322 H       1  UNL1        0.1675
     11 C          64.1248   88.7760   14.2862 C.ar    1  UNL1        0.1213
     12 N          64.8215   89.7941   15.1394 N.ar    1  UNL1       -0.1677
     13 N          64.8813   91.0806   14.3704 N.ar    1  UNL1       -0.2507
     14 C          64.2216   90.8575   13.0418 C.ar    1  UNL1        0.0816
     15 C          63.9862   91.7673   11.8727 C.ar    1  UNL1        0.0484
     16 C          63.2834   91.2528   10.6516 C.ar    1  UNL1        0.1416
     17 F          63.0480   92.1627    9.4824 F       1  UNL1       -0.2041
     18 C          62.8158   89.8284   10.5995 C.ar    1  UNL1        0.0298
     19 C          63.0512   88.9186   11.7686 C.ar    1  UNL1        0.0054
     20 C          63.7541   89.4332   12.9898 C.ar    1  UNL1        0.0383
     21 C          65.4933   92.3647   14.8463 C.3     1  UNL1        0.1300
     22 C          66.6234   92.3367   15.8324 C.3     1  UNL1        0.0582
     23 C          68.0361   92.1899   15.3500 C.3     1  UNL1        0.1417
     24 O          69.1759   92.3191   16.3166 O.3     1  UNL1       -0.3818
     25 H          68.8282   92.4958   17.2047 H       1  UNL1        0.2104
     26 C          68.3090   91.9140   13.9011 C.3     1  UNL1        0.1663
     27 O          69.7161   91.9517   13.3825 O.3     1  UNL1       -0.3795
     28 H          70.0587   92.8572   13.4426 H       1  UNL1        0.2105
     29 N          63.0012   84.9044   10.8518 N.am    1  UNL1       -0.3039
     30 C          62.9237   83.6374   11.6511 C.2     1  UNL1        0.2488
     31 O          62.7601   82.3196   10.9536 O.2     1  UNL1       -0.2700
     32 H          63.1085   85.7694   11.3096 H       1  UNL1        0.1496
     33 C          64.0097   83.8283    9.3271 C.3     1  UNL1        0.0196
     34 C          62.9151   84.8535    9.3551 C.3     1  UNL1        0.0572
     35 C          61.8205   85.8788    9.3832 C.3     1  UNL1        0.0196
     36 C          62.8290   84.8026    7.8586 C.3     1  UNL1        0.0196
@<TRIPOS>BOND
     1    33    34    1
     2    34    35    1
     3    34    36    1
     4    34    29    1
     5    29    30   am
     6    30    31    2
     7    30     1    1
     8     1     2   ar
     9     2     3   ar
    10     3     4   ar
    11     4     5   ar
    12     5     6   ar
    13     6     7   ar
    14     7    11    1
    15    11    12   ar
    16    12    13   ar
    17    13    21    1
    18    21    22    1
    19    22    23    1
    20    23    24    1
    21    23    26    1
    22    26    27    1
    23    13    14   ar
    24    14    15   ar
    25    15    16   ar
    26    16    17    1
    27    16    18   ar
    28    18    19   ar
    29    19    20   ar
    30     7     8   ar
    31     8     9   ar
    32     9     1   ar
    33     9     4    1
    34    20    11   ar
    35    20    14   ar
    36    29    32    1
    37     5    10    1
    38    24    25    1
    39    27    28    1
