@<TRIPOS>MOLECULE
*****
 64 71 0 0 0
SMALL
GASTEIGER

@<TRIPOS>ATOM
      1 N          58.3088   95.9937   -3.7318 N.3     1  UNL1       -0.1862
      2 C          59.7573   96.2050   -4.0595 C.3     1  UNL1        0.1775
      3 C          60.8101   95.8997   -3.0356 C.2     1  UNL1        0.2452
      4 O          62.2586   96.1110   -3.3633 O.2     1  UNL1       -0.2732
      5 N          60.4146   95.3831   -1.6841 N.am    1  UNL1       -0.2541
      6 C          61.4674   95.0778   -0.6603 C.3     1  UNL1        0.1577
      7 C          61.0719   94.5612    0.6912 C.2     1  UNL1        0.2445
      8 O          62.1248   94.2558    1.7151 O.2     1  UNL1       -0.2731
      9 N          59.6234   94.3498    1.0190 N.am    1  UNL1       -0.2705
     10 C          58.5705   94.6551   -0.0049 C.3     1  UNL1        0.1359
     11 C          58.9662   95.1718   -1.3565 C.3     1  UNL1        0.1908
     12 N          57.9133   95.4771   -2.3803 N.am    1  UNL1       -0.1863
     13 C          56.4648   95.2657   -2.0526 C.2     1  UNL1        0.3191
     14 O          56.0693   94.7491   -0.7011 O.2     1  UNL1       -0.2512
     15 N          55.4120   95.5711   -3.0764 N.am    1  UNL1       -0.2836
     16 H          55.6716   95.9101   -3.9635 H       1  UNL1        0.1513
     17 C          57.2560   96.2990   -4.7556 C.3     1  UNL1        0.1188
     18 C          57.3499   93.8938   -5.7335 C.2     1  UNL1       -0.0034
     19 C          57.0143   95.3474   -5.8897 C.2     1  UNL1       -0.0071
     20 C          62.9158   95.2891   -0.9879 C.3     1  UNL1        0.0556
     21 C          63.5463   94.5348   -2.1209 C.ar    1  UNL1       -0.0198
     22 C          63.1840   93.0990   -2.3596 C.ar    1  UNL1       -0.0011
     23 C          63.8144   92.3447   -3.4925 C.ar    1  UNL1        0.0363
     24 C          64.8072   93.0263   -4.3868 C.ar    1  UNL1        0.1337
     25 O          65.4377   92.2720   -5.5198 O.3     1  UNL1       -0.5055
     26 C          65.1696   94.4622   -4.1481 C.ar    1  UNL1        0.0363
     27 C          64.5391   95.2165   -3.0152 C.ar    1  UNL1       -0.0011
     28 H          65.2113   91.3751   -5.6689 H       1  UNL1        0.2922
     29 C          59.2279   93.8332    2.3705 C.3     1  UNL1        0.1217
     30 C          60.0659   92.7908    3.0497 C.ar    1  UNL1        0.0135
     31 C          61.4966   92.5969    2.6432 C.ar    1  UNL1       -0.0012
     32 C          62.3346   91.5546    3.3224 C.ar    1  UNL1       -0.0002
     33 C          61.7418   90.7062    4.4080 C.ar    1  UNL1        0.0016
     34 C          60.3110   90.9001    4.8145 C.ar    1  UNL1        0.0214
     35 C          59.4588   90.2186    5.8438 C.ar    1  UNL1        0.0722
     36 C          58.0942   90.8397    5.8007 C.ar    1  UNL1        0.0805
     37 N          58.1030   91.9051    4.7448 N.ar    1  UNL1       -0.3241
     38 C          56.9450   92.7796    4.3651 C.3     1  UNL1        0.1305
     39 C          59.4730   91.9424    4.1354 C.ar    1  UNL1        0.0577
     40 C          59.8948   89.1104    6.7560 C.2     1  UNL1        0.2510
     41 O          59.7528   87.6818    6.3216 O.2     1  UNL1       -0.2698
     42 N          60.4728   89.4310    8.1025 N.am    1  UNL1       -0.2791
     43 H          60.5660   90.3687    8.3876 H       1  UNL1        0.1552
     44 C          60.9088   88.3230    9.0147 C.ar    1  UNL1        0.0701
     45 C          61.3547   87.0108    8.4408 C.ar    1  UNL1        0.0191
     46 C          61.7907   85.9027    9.3530 C.ar    1  UNL1        0.0356
     47 C          61.7807   86.1068   10.8390 C.ar    1  UNL1        0.1318
     48 N          61.3348   87.4190   11.4129 N.ar    1  UNL1       -0.2279
     49 C          60.8988   88.5271   10.5007 C.ar    1  UNL1        0.1149
     50 N          62.2167   84.9988   11.7512 N.pl3   1  UNL1       -0.2931
     51 C          62.3863   83.6084   11.2145 C.3     1  UNL1        0.0947
     52 C          62.8223   82.5003   12.1266 C.3     1  UNL1        0.0510
     53 C          63.0887   82.7825   13.5755 C.3     1  UNL1        0.1188
     54 C          62.9191   84.1729   14.1123 C.3     1  UNL1        0.0510
     55 C          62.4831   85.2811   13.2001 C.3     1  UNL1        0.0947
     56 O          63.5246   81.6745   14.4877 O.3     1  UNL1       -0.3535
     57 C          63.3601   80.2452   14.0634 C.3     1  UNL1        0.1740
     58 C          53.9635   95.3598   -2.7488 C.3     1  UNL1        0.1177
     59 C          52.9028   95.8417   -3.6935 C.ar    1  UNL1       -0.0025
     60 C          51.4914   96.0091   -3.2142 C.ar    1  UNL1       -0.0026
     61 C          50.4306   96.4911   -4.1589 C.ar    1  UNL1       -0.0003
     62 C          50.7813   96.8056   -5.5830 C.ar    1  UNL1       -0.0000
     63 C          52.1928   96.6382   -6.0624 C.ar    1  UNL1       -0.0003
     64 C          53.2536   96.1563   -5.1177 C.ar    1  UNL1       -0.0026
@<TRIPOS>BOND
     1    18    19    2
     2    19    17    1
     3    17     1    1
     4     1     2    1
     5     2     3    1
     6     3     4    2
     7     3     5   am
     8     5     6    1
     9     6    20    1
    10    20    21    1
    11    21    22   ar
    12    22    23   ar
    13    23    24   ar
    14    24    25    1
    15    24    26   ar
    16    26    27   ar
    17     6     7    1
    18     7     8    2
    19     7     9   am
    20     9    29    1
    21    29    30    1
    22    30    31   ar
    23    31    32   ar
    24    32    33   ar
    25    33    34   ar
    26    34    35   ar
    27    35    40    1
    28    40    41    2
    29    40    42   am
    30    42    44    1
    31    44    45   ar
    32    45    46   ar
    33    46    47   ar
    34    47    50    1
    35    50    51    1
    36    51    52    1
    37    52    53    1
    38    53    56    1
    39    56    57    1
    40    53    54    1
    41    54    55    1
    42    47    48   ar
    43    48    49   ar
    44    35    36   ar
    45    36    37   ar
    46    37    38    1
    47    37    39   ar
    48     9    10    1
    49    11    10    1
    50    11    12    1
    51    12    13   am
    52    13    14    2
    53    13    15   am
    54    15    58    1
    55    58    59    1
    56    59    60   ar
    57    60    61   ar
    58    61    62   ar
    59    62    63   ar
    60    63    64   ar
    61    12     1    1
    62    64    59   ar
    63    11     5    1
    64    27    21   ar
    65    39    30   ar
    66    39    34   ar
    67    49    44   ar
    68    55    50    1
    69    25    28    1
    70    42    43    1
    71    15    16    1
@<TRIPOS>MOLECULE
*****
 64 71 0 0 0
SMALL
GASTEIGER

@<TRIPOS>ATOM
      1 N          56.8726   96.6807   -6.5244 N.3     1  UNL1       -0.1862
      2 C          58.1590   96.7400   -7.2936 C.3     1  UNL1        0.1775
      3 C          59.4683   96.5833   -6.5786 C.2     1  UNL1        0.2452
      4 O          60.7547   96.6426   -7.3478 O.2     1  UNL1       -0.2732
      5 N          59.4912   96.3672   -5.0944 N.am    1  UNL1       -0.2541
      6 C          60.8005   96.2105   -4.3794 C.3     1  UNL1        0.1577
      7 C          60.8234   95.9944   -2.8953 C.2     1  UNL1        0.2445
      8 O          62.1327   95.8377   -2.1803 O.2     1  UNL1       -0.2731
      9 N          59.5370   95.9351   -2.1260 N.am    1  UNL1       -0.2705
     10 C          58.2277   96.0918   -2.8410 C.3     1  UNL1        0.1359
     11 C          58.2048   96.3079   -4.3253 C.3     1  UNL1        0.1908
     12 N          56.8955   96.4646   -5.0402 N.am    1  UNL1       -0.1863
     13 C          55.6091   96.4053   -4.2710 C.2     1  UNL1        0.3191
     14 O          55.6320   96.1892   -2.7868 O.2     1  UNL1       -0.2512
     15 N          54.2998   96.5620   -4.9860 N.am    1  UNL1       -0.2836
     16 H          54.2848   96.7038   -5.9601 H       1  UNL1        0.1513
     17 C          55.5633   96.8374   -7.2394 C.3     1  UNL1        0.1188
     18 C          55.3625   94.2668   -7.5587 C.2     1  UNL1       -0.0034
     19 C          54.7344   95.6290   -7.5598 C.2     1  UNL1       -0.0071
     20 C          62.0869   96.2698   -5.1486 C.3     1  UNL1        0.0556
     21 C          62.8007   95.0025   -5.5151 C.ar    1  UNL1       -0.0198
     22 C          62.8485   93.8607   -4.5435 C.ar    1  UNL1       -0.0011
     23 C          63.5623   92.5934   -4.9100 C.ar    1  UNL1        0.0363
     24 C          64.2284   92.4679   -6.2481 C.ar    1  UNL1        0.1337
     25 O          64.9423   91.2006   -6.6146 O.3     1  UNL1       -0.5055
     26 C          64.1807   93.6097   -7.2198 C.ar    1  UNL1        0.0363
     27 C          63.4668   94.8770   -6.8533 C.ar    1  UNL1       -0.0011
     28 H          64.9721   90.4873   -6.0077 H       1  UNL1        0.2922
     29 C          59.5599   95.7191   -0.6419 C.3     1  UNL1        0.1217
     30 C          59.9519   94.3827   -0.0844 C.ar    1  UNL1        0.0135
     31 C          60.2346   93.2374   -1.0108 C.ar    1  UNL1       -0.0012
     32 C          60.6266   91.9011   -0.4534 C.ar    1  UNL1       -0.0002
     33 C          60.7359   91.7102    1.0303 C.ar    1  UNL1        0.0016
     34 C          60.4532   92.8556    1.9567 C.ar    1  UNL1        0.0214
     35 C          60.4791   92.9668    3.4523 C.ar    1  UNL1        0.0722
     36 C          60.1031   94.3718    3.8193 C.ar    1  UNL1        0.0805
     37 N          59.8448   95.1289    2.5505 N.ar    1  UNL1       -0.3241
     38 C          59.4411   96.5700    2.4504 C.3     1  UNL1        0.1305
     39 C          60.0612   94.1919    1.3993 C.ar    1  UNL1        0.0577
     40 C          60.8210   91.8661    4.4125 C.2     1  UNL1        0.2510
     41 O          62.1292   91.1426    4.2890 O.2     1  UNL1       -0.2698
     42 N          59.8547   91.4891    5.4961 N.am    1  UNL1       -0.2791
     43 H          58.9962   91.9639    5.5771 H       1  UNL1        0.1552
     44 C          60.1965   90.3885    6.4562 C.ar    1  UNL1        0.0701
     45 C          61.0881   90.6672    7.6299 C.ar    1  UNL1        0.0191
     46 C          61.4299   89.5667    8.5900 C.ar    1  UNL1        0.0356
     47 C          60.8803   88.1875    8.3765 C.ar    1  UNL1        0.1318
     48 N          59.9887   87.9088    7.2029 N.ar    1  UNL1       -0.2279
     49 C          59.6469   89.0093    6.2427 C.ar    1  UNL1        0.1149
     50 N          61.2221   87.0869    9.3367 N.pl3   1  UNL1       -0.2931
     51 C          61.9444   85.8653    8.8509 C.3     1  UNL1        0.0947
     52 C          62.2863   84.7647    9.8110 C.3     1  UNL1        0.0510
     53 C          61.9058   84.8856   11.2569 C.3     1  UNL1        0.1188
     54 C          61.1835   86.1072   11.7427 C.3     1  UNL1        0.0510
     55 C          60.8416   87.2079   10.7826 C.3     1  UNL1        0.0947
     56 O          62.2476   83.7851   12.2170 O.3     1  UNL1       -0.3535
     57 C          63.1444   84.0622   13.3870 C.3     1  UNL1        0.1740
     58 C          53.0134   96.5027   -4.2168 C.3     1  UNL1        0.1177
     59 C          51.7047   96.4451   -4.9474 C.ar    1  UNL1       -0.0025
     60 C          50.4169   96.5883   -4.1917 C.ar    1  UNL1       -0.0026
     61 C          49.1082   96.5307   -4.9224 C.ar    1  UNL1       -0.0003
     62 C          49.0871   96.3299   -6.4087 C.ar    1  UNL1       -0.0000
     63 C          50.3750   96.1867   -7.1645 C.ar    1  UNL1       -0.0003
     64 C          51.6837   96.2443   -6.4338 C.ar    1  UNL1       -0.0026
@<TRIPOS>BOND
     1    18    19    2
     2    19    17    1
     3    17     1    1
     4     1     2    1
     5     2     3    1
     6     3     4    2
     7     3     5   am
     8     5     6    1
     9     6    20    1
    10    20    21    1
    11    21    22   ar
    12    22    23   ar
    13    23    24   ar
    14    24    25    1
    15    24    26   ar
    16    26    27   ar
    17     6     7    1
    18     7     8    2
    19     7     9   am
    20     9    29    1
    21    29    30    1
    22    30    31   ar
    23    31    32   ar
    24    32    33   ar
    25    33    34   ar
    26    34    35   ar
    27    35    40    1
    28    40    41    2
    29    40    42   am
    30    42    44    1
    31    44    45   ar
    32    45    46   ar
    33    46    47   ar
    34    47    50    1
    35    50    51    1
    36    51    52    1
    37    52    53    1
    38    53    56    1
    39    56    57    1
    40    53    54    1
    41    54    55    1
    42    47    48   ar
    43    48    49   ar
    44    35    36   ar
    45    36    37   ar
    46    37    38    1
    47    37    39   ar
    48     9    10    1
    49    11    10    1
    50    11    12    1
    51    12    13   am
    52    13    14    2
    53    13    15   am
    54    15    58    1
    55    58    59    1
    56    59    60   ar
    57    60    61   ar
    58    61    62   ar
    59    62    63   ar
    60    63    64   ar
    61    12     1    1
    62    64    59   ar
    63    11     5    1
    64    27    21   ar
    65    39    30   ar
    66    39    34   ar
    67    49    44   ar
    68    55    50    1
    69    25    28    1
    70    42    43    1
    71    15    16    1
