@<TRIPOS>MOLECULE
*****
 32 36 0 0 0
SMALL
GASTEIGER

@<TRIPOS>ATOM
      1 C          65.3023   91.4995   14.6532 C.ar    1  UNL1        0.0436
      2 C          66.2953   92.2387   15.5002 C.ar    1  UNL1        0.0142
      3 C          67.0578   93.3953   14.9251 C.ar    1  UNL1        0.0010
      4 C          66.8273   93.8127   13.5029 C.ar    1  UNL1       -0.0032
      5 C          65.8343   93.0735   12.6558 C.ar    1  UNL1       -0.0091
      6 C          65.0718   91.9169   13.2310 C.ar    1  UNL1       -0.0101
      7 C          64.0788   91.1776   12.3839 C.3     1  UNL1        0.0444
      8 C          63.8483   91.5950   10.9617 C.3     1  UNL1        0.0749
      9 N          64.6108   92.7517   10.3866 N.3     1  UNL1       -0.2934
     10 C          65.6038   93.4909   11.2336 C.3     1  UNL1        0.0954
     11 H          63.9199   93.4357   10.0782 H       1  UNL1        0.1236
     12 C          63.7508   88.0914   15.6747 C.3     1  UNL1        0.0791
     13 C          62.9819   89.0345   16.5520 C.3     1  UNL1        0.0391
     14 C          63.4695   90.4259   16.2760 C.3     1  UNL1        0.0923
     15 N          64.5398   90.3428   15.2283 N.pl3   1  UNL1       -0.3063
     16 C          64.7136   88.9000   14.8567 C.3     1  UNL1        0.1067
     17 C          62.8488   85.8909   16.7208 C.3     1  UNL1        0.0897
     18 N          63.5858   86.6013   15.6244 N.3     1  UNL1       -0.2699
     19 C          64.1578   85.8217   14.4777 C.3     1  UNL1        0.0897
     20 C          62.8553   90.8558   10.1147 C.3     1  UNL1        0.0886
     21 N          61.7738   90.0435   10.7632 N.3     1  UNL1       -0.2667
     22 C          60.7523   90.7136   11.6336 C.3     1  UNL1        0.0899
     23 C          61.7139   88.5612   10.5414 C.3     1  UNL1        0.0978
     24 C          62.4935   87.6377   11.4299 C.3     1  UNL1        0.0224
     25 C          62.4335   86.1555   11.2081 C.3     1  UNL1        0.0065
     26 C          61.5940   85.5966   10.0977 C.3     1  UNL1        0.0277
     27 C          60.8145   86.5200    9.2092 C.ar    1  UNL1       -0.0073
     28 C          59.9750   85.9612    8.0988 C.ar    1  UNL1       -0.0015
     29 C          59.1954   86.8847    7.2102 C.ar    1  UNL1        0.0203
     30 C          59.2554   88.3669    7.4320 C.ar    1  UNL1        0.0985
     31 N          60.0949   88.9258    8.5424 N.ar    1  UNL1       -0.2471
     32 C          60.8744   88.0024    9.4310 C.ar    1  UNL1        0.0695
@<TRIPOS>BOND
     1    17    18    1
     2    18    19    1
     3    12    18    1
     4    12    13    1
     5    13    14    1
     6    14    15    1
     7    15     1    1
     8     1     2   ar
     9     2     3   ar
    10     3     4   ar
    11     4     5   ar
    12     5     6   ar
    13     6     7    1
    14     7     8    1
    15     8    20    1
    16    20    21    1
    17    21    22    1
    18    23    21    1
    19    23    24    1
    20    24    25    1
    21    25    26    1
    22    26    27    1
    23    27    28   ar
    24    28    29   ar
    25    29    30   ar
    26    30    31   ar
    27    31    32   ar
    28     8     9    1
    29     9    10    1
    30    15    16    1
    31    16    12    1
    32     6     1   ar
    33    32    23    1
    34    10     5    1
    35    32    27   ar
    36     9    11    1
@<TRIPOS>MOLECULE
*****
 32 36 0 0 0
SMALL
GASTEIGER

@<TRIPOS>ATOM
      1 C          62.6313   84.1433   11.8842 C.ar    1  UNL1        0.0436
      2 C          62.2962   82.7112   11.5896 C.ar    1  UNL1        0.0142
      3 C          62.6959   81.6338   12.5536 C.ar    1  UNL1        0.0010
      4 C          63.4308   81.9885   13.8122 C.ar    1  UNL1       -0.0032
      5 C          63.7659   83.4206   14.1069 C.ar    1  UNL1       -0.0091
      6 C          63.3661   84.4980   13.1429 C.ar    1  UNL1       -0.0101
      7 C          63.7012   85.9301   13.4375 C.3     1  UNL1        0.0444
      8 C          64.4360   86.2848   14.6961 C.3     1  UNL1        0.0749
      9 N          64.8358   85.2073   15.6602 N.3     1  UNL1       -0.2934
     10 C          64.5007   83.7752   15.3655 C.3     1  UNL1        0.0954
     11 H          64.3986   85.4343   16.5533 H       1  UNL1        0.1236
     12 C          61.1538   87.1678    9.9515 C.3     1  UNL1        0.0791
     13 C          62.0790   86.5898    8.9218 C.3     1  UNL1        0.0391
     14 C          62.7450   85.3865    9.5205 C.3     1  UNL1        0.0923
     15 N          62.2315   85.2208   10.9202 N.pl3   1  UNL1       -0.3063
     16 C          61.2481   86.3217   11.1865 C.3     1  UNL1        0.1067
     17 C          59.6441   89.0202   10.9710 C.3     1  UNL1        0.0897
     18 N          60.2867   88.3792    9.7768 N.3     1  UNL1       -0.2699
     19 C          60.0621   88.9497    8.4078 C.3     1  UNL1        0.0897
     20 C          64.7711   87.7168   14.9908 C.3     1  UNL1        0.0886
     21 N          63.7424   88.7873   14.7763 N.3     1  UNL1       -0.2667
     22 C          62.6373   88.9758   15.7729 C.3     1  UNL1        0.0899
     23 C          63.8189   89.6691   13.5654 C.3     1  UNL1        0.0978
     24 C          63.0249   89.3294   12.3388 C.3     1  UNL1        0.0224
     25 C          63.1013   90.2113   11.1279 C.3     1  UNL1        0.0065
     26 C          63.9716   91.4328   11.1434 C.3     1  UNL1        0.0277
     27 C          64.7656   91.7726   12.3698 C.ar    1  UNL1       -0.0073
     28 C          65.6359   92.9941   12.3853 C.ar    1  UNL1       -0.0015
     29 C          66.4299   93.3338   13.6118 C.ar    1  UNL1        0.0203
     30 C          66.3535   92.4520   14.8228 C.ar    1  UNL1        0.0985
     31 N          65.4832   91.2304   14.8073 N.ar    1  UNL1       -0.2471
     32 C          64.6892   90.8907   13.5809 C.ar    1  UNL1        0.0695
@<TRIPOS>BOND
     1    17    18    1
     2    18    19    1
     3    12    18    1
     4    12    13    1
     5    13    14    1
     6    14    15    1
     7    15     1    1
     8     1     2   ar
     9     2     3   ar
    10     3     4   ar
    11     4     5   ar
    12     5     6   ar
    13     6     7    1
    14     7     8    1
    15     8    20    1
    16    20    21    1
    17    21    22    1
    18    23    21    1
    19    23    24    1
    20    24    25    1
    21    25    26    1
    22    26    27    1
    23    27    28   ar
    24    28    29   ar
    25    29    30   ar
    26    30    31   ar
    27    31    32   ar
    28     8     9    1
    29     9    10    1
    30    15    16    1
    31    16    12    1
    32     6     1   ar
    33    32    23    1
    34    10     5    1
    35    32    27   ar
    36     9    11    1
@<TRIPOS>MOLECULE
*****
 32 36 0 0 0
SMALL
GASTEIGER

@<TRIPOS>ATOM
      1 C          64.1955   90.6994   13.4404 C.ar    1  UNL1        0.0436
      2 C          65.2999   91.7133   13.4852 C.ar    1  UNL1        0.0142
      3 C          65.6292   92.5182   12.2631 C.ar    1  UNL1        0.0010
      4 C          64.8540   92.3091   10.9960 C.ar    1  UNL1       -0.0032
      5 C          63.7495   91.2952   10.9512 C.ar    1  UNL1       -0.0091
      6 C          63.4203   90.4903   12.1733 C.ar    1  UNL1       -0.0101
      7 C          62.3158   89.4762   12.1285 C.3     1  UNL1        0.0444
      8 C          61.5406   89.2671   10.8615 C.3     1  UNL1        0.0749
      9 N          61.8699   90.0721    9.6393 N.3     1  UNL1       -0.2934
     10 C          62.9743   91.0861    9.6842 C.3     1  UNL1        0.0954
     11 H          61.0205   90.5733    9.3791 H       1  UNL1        0.1236
     12 C          63.4968   88.0236   16.1639 C.3     1  UNL1        0.0791
     13 C          63.2223   89.2881   16.9227 C.3     1  UNL1        0.0391
     14 C          63.4506   90.4443   15.9948 C.3     1  UNL1        0.0923
     15 N          63.8662   89.8944   14.6626 N.pl3   1  UNL1       -0.3063
     16 C          63.8947   88.3983   14.7671 C.3     1  UNL1        0.1067
     17 C          64.0845   85.4977   16.0067 C.3     1  UNL1        0.0897
     18 N          63.3917   86.6291   16.7066 N.3     1  UNL1       -0.2699
     19 C          62.5939   86.3661   17.9493 C.3     1  UNL1        0.0897
     20 C          60.4362   88.2532   10.8166 C.3     1  UNL1        0.0886
     21 N          60.2930   87.3524    9.6258 N.3     1  UNL1       -0.2667
     22 C          59.0969   87.4787    8.7294 C.3     1  UNL1        0.0899
     23 C          61.3458   86.3253    9.3314 C.3     1  UNL1        0.0978
     24 C          61.7354   86.0362    7.9120 C.3     1  UNL1        0.0224
     25 C          62.7882   85.0091    7.6176 C.3     1  UNL1        0.0065
     26 C          63.4514   84.2711    8.7425 C.3     1  UNL1        0.0277
     27 C          63.0618   84.5601   10.1619 C.ar    1  UNL1       -0.0073
     28 C          63.7250   83.8221   11.2869 C.ar    1  UNL1       -0.0015
     29 C          63.3354   84.1113   12.7063 C.ar    1  UNL1        0.0203
     30 C          62.2826   85.1383   13.0007 C.ar    1  UNL1        0.0985
     31 N          61.6194   85.8763   11.8757 N.ar    1  UNL1       -0.2471
     32 C          62.0090   85.5873   10.4564 C.ar    1  UNL1        0.0695
@<TRIPOS>BOND
     1    17    18    1
     2    18    19    1
     3    12    18    1
     4    12    13    1
     5    13    14    1
     6    14    15    1
     7    15     1    1
     8     1     2   ar
     9     2     3   ar
    10     3     4   ar
    11     4     5   ar
    12     5     6   ar
    13     6     7    1
    14     7     8    1
    15     8    20    1
    16    20    21    1
    17    21    22    1
    18    23    21    1
    19    23    24    1
    20    24    25    1
    21    25    26    1
    22    26    27    1
    23    27    28   ar
    24    28    29   ar
    25    29    30   ar
    26    30    31   ar
    27    31    32   ar
    28     8     9    1
    29     9    10    1
    30    15    16    1
    31    16    12    1
    32     6     1   ar
    33    32    23    1
    34    10     5    1
    35    32    27   ar
    36     9    11    1
@<TRIPOS>MOLECULE
*****
 32 36 0 0 0
SMALL
GASTEIGER

@<TRIPOS>ATOM
      1 C          65.2533   90.8094   14.0274 C.ar    1  UNL1        0.0436
      2 C          66.6246   91.2656   14.4292 C.ar    1  UNL1        0.0142
      3 C          67.4246   92.1380   13.5079 C.ar    1  UNL1        0.0010
      4 C          66.8534   92.5542   12.1848 C.ar    1  UNL1       -0.0032
      5 C          65.4822   92.0980   11.7830 C.ar    1  UNL1       -0.0091
      6 C          64.6821   91.2256   12.7043 C.ar    1  UNL1       -0.0101
      7 C          63.3108   90.7693   12.3025 C.3     1  UNL1        0.0444
      8 C          62.7396   91.1855   10.9795 C.3     1  UNL1        0.0749
      9 N          63.5397   92.0580   10.0582 N.3     1  UNL1       -0.2934
     10 C          64.9110   92.5142   10.4600 C.3     1  UNL1        0.0954
     11 H          62.9860   92.8987    9.8940 H       1  UNL1        0.1236
     12 C          63.5218   87.9846   16.0492 C.3     1  UNL1        0.0791
     13 C          62.9222   89.2044   16.6836 C.3     1  UNL1        0.0391
     14 C          63.4978   90.4111   16.0034 C.3     1  UNL1        0.0923
     15 N          64.4532   89.9370   14.9487 N.pl3   1  UNL1       -0.3063
     16 C          64.4680   88.4373   14.9769 C.3     1  UNL1        0.1067
     17 C          63.9504   85.4414   15.7350 C.3     1  UNL1        0.0897
     18 N          63.2269   86.5618   16.4216 N.3     1  UNL1       -0.2699
     19 C          62.2086   86.2593   17.4806 C.3     1  UNL1        0.0897
     20 C          61.3683   90.7293   10.5777 C.3     1  UNL1        0.0886
     21 N          60.8406   89.4148   11.0712 N.3     1  UNL1       -0.2667
     22 C          60.2197   89.3197   12.4334 C.3     1  UNL1        0.0899
     23 C          60.9339   88.1954   10.2027 C.3     1  UNL1        0.0978
     24 C          60.2503   88.1714    8.8677 C.3     1  UNL1        0.0224
     25 C          60.3435   86.9521    7.9991 C.3     1  UNL1        0.0065
     26 C          61.1204   85.7566    8.4655 C.3     1  UNL1        0.0277
     27 C          61.8039   85.7806    9.8005 C.ar    1  UNL1       -0.0073
     28 C          62.5807   84.5852   10.2669 C.ar    1  UNL1       -0.0015
     29 C          63.2643   84.6092   11.6019 C.ar    1  UNL1        0.0203
     30 C          63.1711   85.8285   12.4704 C.ar    1  UNL1        0.0985
     31 N          62.3943   87.0239   12.0040 N.ar    1  UNL1       -0.2471
     32 C          61.7107   87.0000   10.6691 C.ar    1  UNL1        0.0695
@<TRIPOS>BOND
     1    17    18    1
     2    18    19    1
     3    12    18    1
     4    12    13    1
     5    13    14    1
     6    14    15    1
     7    15     1    1
     8     1     2   ar
     9     2     3   ar
    10     3     4   ar
    11     4     5   ar
    12     5     6   ar
    13     6     7    1
    14     7     8    1
    15     8    20    1
    16    20    21    1
    17    21    22    1
    18    23    21    1
    19    23    24    1
    20    24    25    1
    21    25    26    1
    22    26    27    1
    23    27    28   ar
    24    28    29   ar
    25    29    30   ar
    26    30    31   ar
    27    31    32   ar
    28     8     9    1
    29     9    10    1
    30    15    16    1
    31    16    12    1
    32     6     1   ar
    33    32    23    1
    34    10     5    1
    35    32    27   ar
    36     9    11    1
@<TRIPOS>MOLECULE
*****
 32 36 0 0 0
SMALL
GASTEIGER

@<TRIPOS>ATOM
      1 C          61.5462   86.5126    9.8464 C.ar    1  UNL1        0.0436
      2 C          60.5088   86.4438    8.7653 C.ar    1  UNL1        0.0142
      3 C          59.7271   87.6699    8.3969 C.ar    1  UNL1        0.0010
      4 C          59.9828   88.9647    9.1097 C.ar    1  UNL1       -0.0032
      5 C          61.0203   89.0335   10.1908 C.ar    1  UNL1       -0.0091
      6 C          61.8020   87.8074   10.5592 C.ar    1  UNL1       -0.0101
      7 C          62.8395   87.8761   11.6404 C.3     1  UNL1        0.0444
      8 C          63.0953   89.1709   12.3532 C.3     1  UNL1        0.0749
      9 N          62.3135   90.3970   11.9848 N.3     1  UNL1       -0.2934
     10 C          61.2760   90.3283   10.9036 C.3     1  UNL1        0.0954
     11 H          62.9913   91.1033   11.6980 H       1  UNL1        0.1236
     12 C          63.1957   83.3876   11.4524 C.3     1  UNL1        0.0791
     13 C          63.8663   83.4121   10.1108 C.3     1  UNL1        0.0391
     14 C          63.3300   84.5857    9.3459 C.3     1  UNL1        0.0923
     15 N          62.3280   85.2865   10.2148 N.pl3   1  UNL1       -0.3063
     16 C          62.2450   84.5461   11.5166 C.3     1  UNL1        0.1067
     17 C          64.0858   82.8034   13.8223 C.3     1  UNL1        0.0897
     18 N          63.4341   82.3813   12.5390 N.3     1  UNL1       -0.2699
     19 C          63.0206   80.9529   12.3422 C.3     1  UNL1        0.0897
     20 C          64.1327   89.2397   13.4343 C.3     1  UNL1        0.0886
     21 N          64.0521   90.3079   14.4843 N.3     1  UNL1       -0.2667
     22 C          62.9840   90.2470   15.5357 C.3     1  UNL1        0.0899
     23 C          65.0396   91.4370   14.4829 C.3     1  UNL1        0.0978
     24 C          65.7465   91.8167   15.7503 C.3     1  UNL1        0.0224
     25 C          66.7340   92.9457   15.7489 C.3     1  UNL1        0.0065
     26 C          67.0146   93.6952   14.4802 C.3     1  UNL1        0.0277
     27 C          66.3077   93.3155   13.2129 C.ar    1  UNL1       -0.0073
     28 C          66.5883   94.0650   11.9442 C.ar    1  UNL1       -0.0015
     29 C          65.8813   93.6853   10.6768 C.ar    1  UNL1        0.0203
     30 C          64.8939   92.5562   10.6782 C.ar    1  UNL1        0.0985
     31 N          64.6133   91.8068   11.9469 N.ar    1  UNL1       -0.2471
     32 C          65.3202   92.1864   13.2142 C.ar    1  UNL1        0.0695
@<TRIPOS>BOND
     1    17    18    1
     2    18    19    1
     3    12    18    1
     4    12    13    1
     5    13    14    1
     6    14    15    1
     7    15     1    1
     8     1     2   ar
     9     2     3   ar
    10     3     4   ar
    11     4     5   ar
    12     5     6   ar
    13     6     7    1
    14     7     8    1
    15     8    20    1
    16    20    21    1
    17    21    22    1
    18    23    21    1
    19    23    24    1
    20    24    25    1
    21    25    26    1
    22    26    27    1
    23    27    28   ar
    24    28    29   ar
    25    29    30   ar
    26    30    31   ar
    27    31    32   ar
    28     8     9    1
    29     9    10    1
    30    15    16    1
    31    16    12    1
    32     6     1   ar
    33    32    23    1
    34    10     5    1
    35    32    27   ar
    36     9    11    1
@<TRIPOS>MOLECULE
*****
 32 36 0 0 0
SMALL
GASTEIGER

@<TRIPOS>ATOM
      1 C          61.3231   86.2997    9.3905 C.ar    1  UNL1        0.0436
      2 C          60.6991   85.8410    8.1059 C.ar    1  UNL1        0.0142
      3 C          59.8143   86.7697    7.3284 C.ar    1  UNL1        0.0010
      4 C          59.5535   88.1571    7.8354 C.ar    1  UNL1       -0.0032
      5 C          60.1775   88.6158    9.1199 C.ar    1  UNL1       -0.0091
      6 C          61.0623   87.6871    9.8975 C.ar    1  UNL1       -0.0101
      7 C          61.6864   88.1459   11.1821 C.3     1  UNL1        0.0444
      8 C          61.4256   89.5333   11.6891 C.3     1  UNL1        0.0749
      9 N          60.5407   90.4620   10.9115 N.3     1  UNL1       -0.2934
     10 C          59.9167   90.0033    9.6269 C.3     1  UNL1        0.0954
     11 H          61.1007   91.2851   10.6893 H       1  UNL1        0.1236
     12 C          63.2304   84.1509   12.0001 C.3     1  UNL1        0.0791
     13 C          63.9087   83.7330   10.7292 C.3     1  UNL1        0.0391
     14 C          63.2768   84.4871    9.5970 C.3     1  UNL1        0.0923
     15 N          62.2079   85.3710   10.1681 N.pl3   1  UNL1       -0.3063
     16 C          62.1792   85.1632   11.6534 C.3     1  UNL1        0.1067
     17 C          64.7711   84.1355   14.0920 C.3     1  UNL1        0.0897
     18 N          63.5475   83.6451   13.3763 N.3     1  UNL1       -0.2699
     19 C          62.6410   82.6491   14.0367 C.3     1  UNL1        0.0897
     20 C          62.0496   89.9920   12.9737 C.3     1  UNL1        0.0886
     21 N          63.5414   89.9786   13.1296 N.3     1  UNL1       -0.2667
     22 C          64.2158   88.8138   13.7919 C.3     1  UNL1        0.0899
     23 C          64.3588   91.1298   12.6232 C.3     1  UNL1        0.0978
     24 C          64.2764   91.5308   11.1801 C.3     1  UNL1        0.0224
     25 C          65.0938   92.6821   10.6737 C.3     1  UNL1        0.0065
     26 C          65.9936   93.4324   11.6104 C.3     1  UNL1        0.0277
     27 C          66.0761   93.0314   13.0534 C.ar    1  UNL1       -0.0073
     28 C          66.9759   93.7817   13.9901 C.ar    1  UNL1       -0.0015
     29 C          67.0583   93.3807   15.4332 C.ar    1  UNL1        0.0203
     30 C          66.2409   92.2295   15.9396 C.ar    1  UNL1        0.0985
     31 N          65.3411   91.4792   15.0029 N.ar    1  UNL1       -0.2471
     32 C          65.2586   91.8801   13.5599 C.ar    1  UNL1        0.0695
@<TRIPOS>BOND
     1    17    18    1
     2    18    19    1
     3    12    18    1
     4    12    13    1
     5    13    14    1
     6    14    15    1
     7    15     1    1
     8     1     2   ar
     9     2     3   ar
    10     3     4   ar
    11     4     5   ar
    12     5     6   ar
    13     6     7    1
    14     7     8    1
    15     8    20    1
    16    20    21    1
    17    21    22    1
    18    23    21    1
    19    23    24    1
    20    24    25    1
    21    25    26    1
    22    26    27    1
    23    27    28   ar
    24    28    29   ar
    25    29    30   ar
    26    30    31   ar
    27    31    32   ar
    28     8     9    1
    29     9    10    1
    30    15    16    1
    31    16    12    1
    32     6     1   ar
    33    32    23    1
    34    10     5    1
    35    32    27   ar
    36     9    11    1
@<TRIPOS>MOLECULE
*****
 32 36 0 0 0
SMALL
GASTEIGER

@<TRIPOS>ATOM
      1 C          62.7373   84.3249   11.9727 C.ar    1  UNL1        0.0436
      2 C          62.5521   82.8368   12.0061 C.ar    1  UNL1        0.0142
      3 C          62.9324   82.0611   13.2323 C.ar    1  UNL1        0.0010
      4 C          63.4979   82.7735   14.4251 C.ar    1  UNL1       -0.0032
      5 C          63.6831   84.2616   14.3917 C.ar    1  UNL1       -0.0091
      6 C          63.3028   85.0373   13.1655 C.ar    1  UNL1       -0.0101
      7 C          63.4880   86.5255   13.1320 C.3     1  UNL1        0.0444
      8 C          64.0535   87.2379   14.3248 C.3     1  UNL1        0.0749
      9 N          64.4337   86.4621   15.5510 N.3     1  UNL1       -0.2934
     10 C          64.2485   84.9740   15.5844 C.3     1  UNL1        0.0954
     11 H          63.8869   86.8443   16.3226 H       1  UNL1        0.1236
     12 C          61.2085   86.6148    9.2369 C.3     1  UNL1        0.0791
     13 C          62.3354   85.9741    8.4820 C.3     1  UNL1        0.0391
     14 C          63.0452   85.0383    9.4150 C.3     1  UNL1        0.0923
     15 N          62.3571   85.1007   10.7464 N.pl3   1  UNL1       -0.3063
     16 C          61.2219   86.0750   10.6363 C.3     1  UNL1        0.1067
     17 C          60.4269   89.0788    8.9770 C.3     1  UNL1        0.0897
     18 N          60.2385   87.6190    8.6884 N.3     1  UNL1       -0.2699
     19 C          59.0801   87.1633    7.8515 C.3     1  UNL1        0.0897
     20 C          64.2387   88.7260   14.2913 C.3     1  UNL1        0.0886
     21 N          63.3090   89.5795   13.4806 N.3     1  UNL1       -0.2667
     22 C          61.8258   89.3813   13.5851 C.3     1  UNL1        0.0899
     23 C          63.8625   90.6312   12.5654 C.3     1  UNL1        0.0978
     24 C          63.4605   90.6551   11.1204 C.3     1  UNL1        0.0224
     25 C          64.0139   91.7068   10.2053 C.3     1  UNL1        0.0065
     26 C          64.9694   92.7346   10.7350 C.3     1  UNL1        0.0277
     27 C          65.3714   92.7108   12.1799 C.ar    1  UNL1       -0.0073
     28 C          66.3269   93.7387   12.7096 C.ar    1  UNL1       -0.0015
     29 C          66.7288   93.7148   14.1546 C.ar    1  UNL1        0.0203
     30 C          66.1754   92.6631   15.0698 C.ar    1  UNL1        0.0985
     31 N          65.2199   91.6352   14.5401 N.ar    1  UNL1       -0.2471
     32 C          64.8179   91.6591   13.0952 C.ar    1  UNL1        0.0695
@<TRIPOS>BOND
     1    17    18    1
     2    18    19    1
     3    12    18    1
     4    12    13    1
     5    13    14    1
     6    14    15    1
     7    15     1    1
     8     1     2   ar
     9     2     3   ar
    10     3     4   ar
    11     4     5   ar
    12     5     6   ar
    13     6     7    1
    14     7     8    1
    15     8    20    1
    16    20    21    1
    17    21    22    1
    18    23    21    1
    19    23    24    1
    20    24    25    1
    21    25    26    1
    22    26    27    1
    23    27    28   ar
    24    28    29   ar
    25    29    30   ar
    26    30    31   ar
    27    31    32   ar
    28     8     9    1
    29     9    10    1
    30    15    16    1
    31    16    12    1
    32     6     1   ar
    33    32    23    1
    34    10     5    1
    35    32    27   ar
    36     9    11    1
@<TRIPOS>MOLECULE
*****
 32 36 0 0 0
SMALL
GASTEIGER

@<TRIPOS>ATOM
      1 C          62.8945   84.5763   11.8592 C.ar    1  UNL1        0.0436
      2 C          62.9096   83.0901   12.0614 C.ar    1  UNL1        0.0142
      3 C          63.4185   82.5135   13.3492 C.ar    1  UNL1        0.0010
      4 C          63.9124   83.4232   14.4348 C.ar    1  UNL1       -0.0032
      5 C          63.8974   84.9094   14.2326 C.ar    1  UNL1       -0.0091
      6 C          63.3884   85.4859   12.9448 C.ar    1  UNL1       -0.0101
      7 C          63.3733   86.9722   12.7426 C.3     1  UNL1        0.0444
      8 C          63.8672   87.8819   13.8282 C.3     1  UNL1        0.0749
      9 N          64.3762   87.3053   15.1161 N.3     1  UNL1       -0.2934
     10 C          64.3913   85.8190   15.3183 C.3     1  UNL1        0.0954
     11 H          63.8018   87.6981   15.8619 H       1  UNL1        0.1236
     12 C          61.0685   86.4091    8.9657 C.3     1  UNL1        0.0791
     13 C          62.1361   85.6713    8.2134 C.3     1  UNL1        0.0391
     14 C          62.9500   84.8949    9.2058 C.3     1  UNL1        0.0923
     15 N          62.3855   85.1529   10.5714 N.pl3   1  UNL1       -0.3063
     16 C          61.2226   86.0887   10.4230 C.3     1  UNL1        0.1067
     17 C          60.0837   88.7875    8.6144 C.3     1  UNL1        0.0897
     18 N          60.0292   87.3092    8.3660 N.3     1  UNL1       -0.2699
     19 C          58.9353   86.7311    7.5179 C.3     1  UNL1        0.0897
     20 C          63.8521   89.3681   13.6261 C.3     1  UNL1        0.0886
     21 N          64.1105   90.2853   14.7845 N.3     1  UNL1       -0.2667
     22 C          63.4034   90.0637   16.0888 C.3     1  UNL1        0.0899
     23 C          65.0760   91.4239   14.6388 C.3     1  UNL1        0.0978
     24 C          65.8510   91.9071   15.8287 C.3     1  UNL1        0.0224
     25 C          66.8165   93.0458   15.6830 C.3     1  UNL1        0.0065
     26 C          67.0070   93.7012   14.3473 C.3     1  UNL1        0.0277
     27 C          66.2321   93.2181   13.1574 C.ar    1  UNL1       -0.0073
     28 C          66.4227   93.8735   11.8217 C.ar    1  UNL1       -0.0015
     29 C          65.6477   93.3903   10.6317 C.ar    1  UNL1        0.0203
     30 C          64.6822   92.2516   10.7775 C.ar    1  UNL1        0.0985
     31 N          64.4916   91.5962   12.1131 N.ar    1  UNL1       -0.2471
     32 C          65.2666   92.0794   13.3031 C.ar    1  UNL1        0.0695
@<TRIPOS>BOND
     1    17    18    1
     2    18    19    1
     3    12    18    1
     4    12    13    1
     5    13    14    1
     6    14    15    1
     7    15     1    1
     8     1     2   ar
     9     2     3   ar
    10     3     4   ar
    11     4     5   ar
    12     5     6   ar
    13     6     7    1
    14     7     8    1
    15     8    20    1
    16    20    21    1
    17    21    22    1
    18    23    21    1
    19    23    24    1
    20    24    25    1
    21    25    26    1
    22    26    27    1
    23    27    28   ar
    24    28    29   ar
    25    29    30   ar
    26    30    31   ar
    27    31    32   ar
    28     8     9    1
    29     9    10    1
    30    15    16    1
    31    16    12    1
    32     6     1   ar
    33    32    23    1
    34    10     5    1
    35    32    27   ar
    36     9    11    1
@<TRIPOS>MOLECULE
*****
 32 36 0 0 0
SMALL
GASTEIGER

@<TRIPOS>ATOM
      1 C          61.4580   86.2945    9.4957 C.ar    1  UNL1        0.0436
      2 C          60.4777   86.0343    8.3907 C.ar    1  UNL1        0.0142
      3 C          59.6206   87.1499    7.8703 C.ar    1  UNL1        0.0010
      4 C          59.7439   88.5257    8.4551 C.ar    1  UNL1       -0.0032
      5 C          60.7242   88.7859    9.5602 C.ar    1  UNL1       -0.0091
      6 C          61.5813   87.6703   10.0805 C.ar    1  UNL1       -0.0101
      7 C          62.5617   87.9304   11.1856 C.3     1  UNL1        0.0444
      8 C          62.6850   89.3062   11.7703 C.3     1  UNL1        0.0749
      9 N          61.8278   90.4219   11.2500 N.3     1  UNL1       -0.2934
     10 C          60.8475   90.1617   10.1449 C.3     1  UNL1        0.0954
     11 H          62.4610   91.1488   10.9168 H       1  UNL1        0.1236
     12 C          63.2931   83.5108   11.4830 C.3     1  UNL1        0.0791
     13 C          63.9750   83.4132   10.1505 C.3     1  UNL1        0.0391
     14 C          63.3706   84.4441    9.2439 C.3     1  UNL1        0.0923
     15 N          62.3151   85.1788   10.0161 N.pl3   1  UNL1       -0.3063
     16 C          62.2673   84.6020   11.3999 C.3     1  UNL1        0.1067
     17 C          63.2075   81.2141   12.6946 C.3     1  UNL1        0.0897
     18 N          63.5857   82.6656   12.6872 N.3     1  UNL1       -0.2699
     19 C          64.2566   83.2719   13.8840 C.3     1  UNL1        0.0897
     20 C          63.6653   89.5664   12.8754 C.3     1  UNL1        0.0886
     21 N          64.3367   90.9034   12.9831 N.3     1  UNL1       -0.2667
     22 C          64.5876   91.7182   11.7488 C.3     1  UNL1        0.0899
     23 C          64.7571   91.4257   14.3248 C.3     1  UNL1        0.0978
     24 C          63.7572   91.5229   15.4388 C.3     1  UNL1        0.0224
     25 C          64.1776   92.0452   16.7806 C.3     1  UNL1        0.0065
     26 C          65.5979   92.4703   17.0085 C.3     1  UNL1        0.0277
     27 C          66.5978   92.3731   15.8946 C.ar    1  UNL1       -0.0073
     28 C          68.0181   92.7982   16.1226 C.ar    1  UNL1       -0.0015
     29 C          69.0181   92.7011   15.0086 C.ar    1  UNL1        0.0203
     30 C          68.5976   92.1788   13.6668 C.ar    1  UNL1        0.0985
     31 N          67.1773   91.7537   13.4389 N.ar    1  UNL1       -0.2471
     32 C          66.1774   91.8508   14.5528 C.ar    1  UNL1        0.0695
@<TRIPOS>BOND
     1    17    18    1
     2    18    19    1
     3    12    18    1
     4    12    13    1
     5    13    14    1
     6    14    15    1
     7    15     1    1
     8     1     2   ar
     9     2     3   ar
    10     3     4   ar
    11     4     5   ar
    12     5     6   ar
    13     6     7    1
    14     7     8    1
    15     8    20    1
    16    20    21    1
    17    21    22    1
    18    23    21    1
    19    23    24    1
    20    24    25    1
    21    25    26    1
    22    26    27    1
    23    27    28   ar
    24    28    29   ar
    25    29    30   ar
    26    30    31   ar
    27    31    32   ar
    28     8     9    1
    29     9    10    1
    30    15    16    1
    31    16    12    1
    32     6     1   ar
    33    32    23    1
    34    10     5    1
    35    32    27   ar
    36     9    11    1
