@<TRIPOS>MOLECULE
*****
 41 45 0 0 0
SMALL
GASTEIGER

@<TRIPOS>ATOM
      1 O          58.6269   86.7019    6.5247 O.2     1  UNL1       -0.2726
      2 C          59.6132   87.1408    7.5662 C.2     1  UNL1        0.2513
      3 C          60.8540   86.3344    7.8111 C.3     1  UNL1        0.1278
      4 C          61.8403   86.7732    8.8525 C.2     1  UNL1        0.0321
      5 C          61.5858   88.0186    9.6491 C.ar    1  UNL1        0.0245
      6 C          62.5721   88.4574   10.6905 C.ar    1  UNL1       -0.0014
      7 C          62.3176   89.7027   11.4869 C.ar    1  UNL1       -0.0142
      8 C          61.0767   90.5092   11.2420 C.ar    1  UNL1       -0.0023
      9 C          60.0905   90.0703   10.2006 C.ar    1  UNL1        0.0163
     10 C          60.3450   88.8250    9.4041 C.ar    1  UNL1        0.0742
     11 N          59.3587   88.3861    8.3626 N.am    1  UNL1       -0.1789
     12 N          63.0812   85.9668    9.0975 N.pl3   1  UNL1       -0.3368
     13 H          63.9209   86.2049    8.6421 H       1  UNL1        0.1465
     14 C          63.0426   84.7976   10.0363 C.3     1  UNL1        0.0716
     15 C          63.6458   83.4866    9.6269 C.3     1  UNL1        0.0386
     16 C          63.6073   82.3175   10.5657 C.3     1  UNL1        0.0974
     17 N          62.9655   82.4591   11.9140 N.3     1  UNL1       -0.1520
     18 C          62.3622   83.7700   12.3235 C.3     1  UNL1        0.0974
     19 C          62.4008   84.9393   11.3847 C.3     1  UNL1        0.0386
     20 S          62.9269   81.2899   12.8529 S.O2    1  UNL1        0.1302
     21 O          62.9967   82.2267   14.0223 O.2     1  UNL1       -0.1495
     22 O          62.8571   80.3532   11.6835 O.2     1  UNL1       -0.1495
     23 C          62.8883   80.1207   13.7917 C.3     1  UNL1        0.5359
     24 F          64.3084   80.3938   14.1902 F       1  UNL1       -0.1493
     25 F          61.4683   79.8475   13.3933 F       1  UNL1       -0.1493
     26 F          62.8498   78.9515   14.7306 F       1  UNL1       -0.1493
     27 C          63.3039   90.1416   12.5284 C.3     1  UNL1        0.0667
     28 C          63.3431   89.4544   13.8611 C.ar    1  UNL1       -0.0143
     29 C          62.8009   90.1450   15.0774 C.ar    1  UNL1       -0.0028
     30 C          62.8401   89.4577   16.4101 C.ar    1  UNL1        0.0111
     31 C          63.4215   88.0798   16.5265 C.ar    1  UNL1        0.0577
     32 CL         63.4607   87.3925   17.8592 Cl      1  UNL1       -0.0822
     33 C          63.9637   87.3893   15.3103 C.ar    1  UNL1        0.0111
     34 C          63.9245   88.0766   13.9776 C.ar    1  UNL1       -0.0028
     35 C          64.2509   91.2678   12.2372 C.ar    1  UNL1       -0.0143
     36 C          65.1422   91.7976   13.3212 C.ar    1  UNL1       -0.0028
     37 C          66.0893   92.9237   13.0299 C.ar    1  UNL1        0.0111
     38 C          66.1451   93.5201   11.6547 C.ar    1  UNL1        0.0577
     39 CL         67.0921   94.6463   11.3635 Cl      1  UNL1       -0.0822
     40 C          65.2538   92.9904   10.5708 C.ar    1  UNL1        0.0111
     41 C          64.3067   91.8642   10.8620 C.ar    1  UNL1       -0.0028
@<TRIPOS>BOND
     1     1     2    2
     2     2     3    1
     3     3     4    1
     4     4    12    1
     5    12    14    1
     6    14    15    1
     7    15    16    1
     8    16    17    1
     9    17    20    1
    10    20    21    2
    11    20    22    2
    12    20    23    1
    13    23    24    1
    14    23    25    1
    15    23    26    1
    16    17    18    1
    17    18    19    1
    18     4     5    2
    19     5     6   ar
    20     6     7   ar
    21     7    27    1
    22    27    28    1
    23    28    29   ar
    24    29    30   ar
    25    30    31   ar
    26    31    32    1
    27    31    33   ar
    28    33    34   ar
    29    27    35    1
    30    35    36   ar
    31    36    37   ar
    32    37    38   ar
    33    38    39    1
    34    38    40   ar
    35    40    41   ar
    36     7     8   ar
    37     8     9   ar
    38     9    10   ar
    39    10    11    2
    40    11     2    1
    41    19    14    1
    42    10     5   ar
    43    34    28   ar
    44    41    35   ar
    45    12    13    1
@<TRIPOS>MOLECULE
*****
 41 45 0 0 0
SMALL
GASTEIGER

@<TRIPOS>ATOM
      1 O          58.6279   86.7043    6.5256 O.2     1  UNL1       -0.2726
      2 C          59.6140   87.1440    7.5670 C.2     1  UNL1        0.2513
      3 C          60.8559   86.3391    7.8112 C.3     1  UNL1        0.1278
      4 C          61.8420   86.7787    8.8525 C.2     1  UNL1        0.0321
      5 C          61.5861   88.0234    9.6497 C.ar    1  UNL1        0.0245
      6 C          62.5722   88.4630   10.6910 C.ar    1  UNL1       -0.0014
      7 C          62.3163   89.7076   11.4881 C.ar    1  UNL1       -0.0142
      8 C          61.0744   90.5126   11.2439 C.ar    1  UNL1       -0.0023
      9 C          60.0883   90.0729   10.2026 C.ar    1  UNL1        0.0163
     10 C          60.3442   88.8283    9.4055 C.ar    1  UNL1        0.0742
     11 N          59.3581   88.3886    8.3641 N.am    1  UNL1       -0.1789
     12 N          63.0839   85.9737    9.0967 N.pl3   1  UNL1       -0.3368
     13 H          63.9236   86.2141    8.6424 H       1  UNL1        0.1465
     14 C          63.0465   84.8025   10.0330 C.3     1  UNL1        0.0716
     15 C          63.6592   83.4957    9.6244 C.3     1  UNL1        0.0386
     16 C          63.6218   82.3244   10.5607 C.3     1  UNL1        0.0974
     17 N          62.9717   82.4599   11.9057 N.3     1  UNL1       -0.1520
     18 C          62.3589   83.7666   12.3143 C.3     1  UNL1        0.0974
     19 C          62.3963   84.9379   11.3780 C.3     1  UNL1        0.0386
     20 S          62.9343   81.2886   12.8420 S.O2    1  UNL1        0.1302
     21 O          63.0158   82.2223   14.0131 O.2     1  UNL1       -0.1495
     22 O          62.8528   80.3550   11.6708 O.2     1  UNL1       -0.1495
     23 C          62.8969   80.1173   13.7783 C.3     1  UNL1        0.5359
     24 F          64.3212   80.3824   14.1668 F       1  UNL1       -0.1493
     25 F          61.4725   79.8522   13.3898 F       1  UNL1       -0.1493
     26 F          62.8595   78.9460   14.7146 F       1  UNL1       -0.1493
     27 C          63.3024   90.1473   12.5295 C.3     1  UNL1        0.0667
     28 C          64.2474   91.2752   12.2387 C.ar    1  UNL1       -0.0143
     29 C          65.1402   91.8040   13.3220 C.ar    1  UNL1       -0.0028
     30 C          66.0852   92.9319   13.0312 C.ar    1  UNL1        0.0111
     31 C          66.1375   93.5312   11.6570 C.ar    1  UNL1        0.0577
     32 CL         67.0826   94.6591   11.3662 Cl      1  UNL1       -0.0822
     33 C          65.2449   93.0024   10.5737 C.ar    1  UNL1        0.0111
     34 C          64.2998   91.8745   10.8646 C.ar    1  UNL1       -0.0028
     35 C          63.3434   89.4590   13.8616 C.ar    1  UNL1       -0.0143
     36 C          62.8009   90.1479   15.0787 C.ar    1  UNL1       -0.0028
     37 C          62.8419   89.4597   16.4109 C.ar    1  UNL1        0.0111
     38 C          63.4253   88.0825   16.5259 C.ar    1  UNL1        0.0577
     39 CL         63.4663   87.3943   17.8581 Cl      1  UNL1       -0.0822
     40 C          63.9677   87.3937   15.3089 C.ar    1  UNL1        0.0111
     41 C          63.9267   88.0819   13.9767 C.ar    1  UNL1       -0.0028
@<TRIPOS>BOND
     1     1     2    2
     2     2     3    1
     3     3     4    1
     4     4    12    1
     5    12    14    1
     6    14    15    1
     7    15    16    1
     8    16    17    1
     9    17    20    1
    10    20    21    2
    11    20    22    2
    12    20    23    1
    13    23    24    1
    14    23    25    1
    15    23    26    1
    16    17    18    1
    17    18    19    1
    18     4     5    2
    19     5     6   ar
    20     6     7   ar
    21     7    27    1
    22    27    28    1
    23    28    29   ar
    24    29    30   ar
    25    30    31   ar
    26    31    32    1
    27    31    33   ar
    28    33    34   ar
    29    27    35    1
    30    35    36   ar
    31    36    37   ar
    32    37    38   ar
    33    38    39    1
    34    38    40   ar
    35    40    41   ar
    36     7     8   ar
    37     8     9   ar
    38     9    10   ar
    39    10    11    2
    40    11     2    1
    41    19    14    1
    42    10     5   ar
    43    34    28   ar
    44    41    35   ar
    45    12    13    1
@<TRIPOS>MOLECULE
*****
 41 45 0 0 0
SMALL
GASTEIGER

@<TRIPOS>ATOM
      1 O          59.6455   90.2263    7.1848 O.2     1  UNL1       -0.2726
      2 C          60.1376   89.2891    8.2476 C.2     1  UNL1        0.2513
      3 C          60.2572   89.7606    9.6665 C.3     1  UNL1        0.1278
      4 C          60.7493   88.8235   10.7293 C.2     1  UNL1        0.0321
      5 C          61.1219   87.4148   10.3732 C.ar    1  UNL1        0.0245
      6 C          61.6140   86.4777   11.4361 C.ar    1  UNL1       -0.0014
      7 C          61.9866   85.0691   11.0800 C.ar    1  UNL1       -0.0142
      8 C          61.8671   84.5975    9.6610 C.ar    1  UNL1       -0.0023
      9 C          61.3749   85.5346    8.5982 C.ar    1  UNL1        0.0163
     10 C          61.0024   86.9433    8.9543 C.ar    1  UNL1        0.0742
     11 N          60.5102   87.8804    7.8915 N.am    1  UNL1       -0.1789
     12 N          60.8689   89.2951   12.1483 N.pl3   1  UNL1       -0.3368
     13 H          60.1276   89.1492   12.7796 H       1  UNL1        0.1465
     14 C          62.1177   89.9889   12.6053 C.3     1  UNL1        0.0716
     15 C          62.6113   89.7975   14.0088 C.3     1  UNL1        0.0386
     16 C          63.8601   90.4913   14.4659 C.3     1  UNL1        0.0974
     17 N          64.6154   91.3766   13.5195 N.3     1  UNL1       -0.1520
     18 C          64.1220   91.5681   12.1160 C.3     1  UNL1        0.0974
     19 C          62.8730   90.8742   11.6589 C.3     1  UNL1        0.0386
     20 S          65.8643   92.0704   13.9765 S.O2    1  UNL1        0.1302
     21 O          65.3135   92.1440   15.3698 O.2     1  UNL1       -0.1495
     22 O          66.4151   91.9969   12.5833 O.2     1  UNL1       -0.1495
     23 C          67.1132   92.7643   14.4336 C.3     1  UNL1        0.5359
     24 F          67.6654   91.4546   14.9129 F       1  UNL1       -0.1493
     25 F          66.5610   94.0740   13.9543 F       1  UNL1       -0.1493
     26 F          68.3621   93.4581   14.8906 F       1  UNL1       -0.1493
     27 C          62.4788   84.1319   12.1428 C.3     1  UNL1        0.0667
     28 C          62.8229   84.6571   13.5050 C.ar    1  UNL1       -0.0143
     29 C          62.0159   84.2358   14.6972 C.ar    1  UNL1       -0.0028
     30 C          62.3600   84.7610   16.0595 C.ar    1  UNL1        0.0111
     31 C          63.5112   85.7075   16.2295 C.ar    1  UNL1        0.0577
     32 CL         63.8554   86.2328   17.5918 Cl      1  UNL1       -0.0822
     33 C          64.3182   86.1288   15.0374 C.ar    1  UNL1        0.0111
     34 C          63.9741   85.6036   13.6751 C.ar    1  UNL1       -0.0028
     35 C          62.6268   82.6696   11.8434 C.ar    1  UNL1       -0.0143
     36 C          63.2111   82.2274   10.5345 C.ar    1  UNL1       -0.0028
     37 C          63.3590   80.7651   10.2350 C.ar    1  UNL1        0.0111
     38 C          62.9227   79.7449   11.2444 C.ar    1  UNL1        0.0577
     39 CL         63.0707   78.2826   10.9450 Cl      1  UNL1       -0.0822
     40 C          62.3385   80.1870   12.5533 C.ar    1  UNL1        0.0111
     41 C          62.1905   81.6494   12.8528 C.ar    1  UNL1       -0.0028
@<TRIPOS>BOND
     1     1     2    2
     2     2     3    1
     3     3     4    1
     4     4    12    1
     5    12    14    1
     6    14    15    1
     7    15    16    1
     8    16    17    1
     9    17    20    1
    10    20    21    2
    11    20    22    2
    12    20    23    1
    13    23    24    1
    14    23    25    1
    15    23    26    1
    16    17    18    1
    17    18    19    1
    18     4     5    2
    19     5     6   ar
    20     6     7   ar
    21     7    27    1
    22    27    28    1
    23    28    29   ar
    24    29    30   ar
    25    30    31   ar
    26    31    32    1
    27    31    33   ar
    28    33    34   ar
    29    27    35    1
    30    35    36   ar
    31    36    37   ar
    32    37    38   ar
    33    38    39    1
    34    38    40   ar
    35    40    41   ar
    36     7     8   ar
    37     8     9   ar
    38     9    10   ar
    39    10    11    2
    40    11     2    1
    41    19    14    1
    42    10     5   ar
    43    34    28   ar
    44    41    35   ar
    45    12    13    1
@<TRIPOS>MOLECULE
*****
 41 45 0 0 0
SMALL
GASTEIGER

@<TRIPOS>ATOM
      1 O          59.6499   90.2344    7.1866 O.2     1  UNL1       -0.2726
      2 C          60.1415   89.2957    8.2485 C.2     1  UNL1        0.2513
      3 C          60.2595   89.7651    9.6682 C.3     1  UNL1        0.1278
      4 C          60.7510   88.8265   10.7301 C.2     1  UNL1        0.0321
      5 C          61.1245   87.4185   10.3721 C.ar    1  UNL1        0.0245
      6 C          61.6161   86.4800   11.4339 C.ar    1  UNL1       -0.0014
      7 C          61.9896   85.0721   11.0759 C.ar    1  UNL1       -0.0142
      8 C          61.8716   84.6027    9.6561 C.ar    1  UNL1       -0.0023
      9 C          61.3801   85.5413    8.5943 C.ar    1  UNL1        0.0163
     10 C          61.0066   86.9492    8.9523 C.ar    1  UNL1        0.0742
     11 N          60.5150   87.8878    7.8905 N.am    1  UNL1       -0.1789
     12 N          60.8690   89.2959   12.1498 N.pl3   1  UNL1       -0.3368
     13 H          60.1270   89.1490   12.7801 H       1  UNL1        0.1465
     14 C          62.1173   89.9890   12.6093 C.3     1  UNL1        0.0716
     15 C          62.8760   90.8726   11.6639 C.3     1  UNL1        0.0386
     16 C          64.1243   91.5657   12.1234 C.3     1  UNL1        0.0974
     17 N          64.6141   91.3753   13.5284 N.3     1  UNL1       -0.1520
     18 C          63.8555   90.4917   14.4738 C.3     1  UNL1        0.0974
     19 C          62.6071   89.7986   14.0143 C.3     1  UNL1        0.0386
     20 S          65.8624   92.0684   13.9879 S.O2    1  UNL1        0.1302
     21 O          65.3085   92.1431   15.3798 O.2     1  UNL1       -0.1495
     22 O          66.4163   91.9936   12.5959 O.2     1  UNL1       -0.1495
     23 C          67.1108   92.7615   14.4474 C.3     1  UNL1        0.5359
     24 F          67.6524   91.4549   14.9468 F       1  UNL1       -0.1493
     25 F          66.5693   94.0681   13.9479 F       1  UNL1       -0.1493
     26 F          68.3592   93.4545   14.9068 F       1  UNL1       -0.1493
     27 C          62.4811   84.1334   12.1378 C.3     1  UNL1        0.0667
     28 C          62.6292   82.6715   11.8364 C.ar    1  UNL1       -0.0143
     29 C          62.1961   81.6500   12.8458 C.ar    1  UNL1       -0.0028
     30 C          62.3442   80.1880   12.5444 C.ar    1  UNL1        0.0111
     31 C          62.9254   79.7476   11.2336 C.ar    1  UNL1        0.0577
     32 CL         63.0735   78.2857   10.9322 Cl      1  UNL1       -0.0822
     33 C          63.3586   80.7691   10.2242 C.ar    1  UNL1        0.0111
     34 C          63.2105   82.2311   10.5256 C.ar    1  UNL1       -0.0028
     35 C          62.8246   84.6567   13.5009 C.ar    1  UNL1       -0.0143
     36 C          62.0324   84.2146   14.6955 C.ar    1  UNL1       -0.0028
     37 C          62.3758   84.7379   16.0587 C.ar    1  UNL1        0.0111
     38 C          63.5114   85.7033   16.2272 C.ar    1  UNL1        0.0577
     39 CL         63.8548   86.2266   17.5904 Cl      1  UNL1       -0.0822
     40 C          64.3036   86.1454   15.0327 C.ar    1  UNL1        0.0111
     41 C          63.9602   85.6221   13.6695 C.ar    1  UNL1       -0.0028
@<TRIPOS>BOND
     1     1     2    2
     2     2     3    1
     3     3     4    1
     4     4    12    1
     5    12    14    1
     6    14    15    1
     7    15    16    1
     8    16    17    1
     9    17    20    1
    10    20    21    2
    11    20    22    2
    12    20    23    1
    13    23    24    1
    14    23    25    1
    15    23    26    1
    16    17    18    1
    17    18    19    1
    18     4     5    2
    19     5     6   ar
    20     6     7   ar
    21     7    27    1
    22    27    28    1
    23    28    29   ar
    24    29    30   ar
    25    30    31   ar
    26    31    32    1
    27    31    33   ar
    28    33    34   ar
    29    27    35    1
    30    35    36   ar
    31    36    37   ar
    32    37    38   ar
    33    38    39    1
    34    38    40   ar
    35    40    41   ar
    36     7     8   ar
    37     8     9   ar
    38     9    10   ar
    39    10    11    2
    40    11     2    1
    41    19    14    1
    42    10     5   ar
    43    34    28   ar
    44    41    35   ar
    45    12    13    1
