@<TRIPOS>MOLECULE
*****
 39 43 0 0 0
SMALL
GASTEIGER

@<TRIPOS>ATOM
      1 C          60.7016   87.7675    8.5693 C.ar    1  UNL1        0.0044
      2 C          60.1576   87.7294    7.1719 C.ar    1  UNL1        0.0001
      3 C          59.3472   88.8791    6.6509 C.ar    1  UNL1        0.0000
      4 C          59.0809   90.0670    7.5273 C.ar    1  UNL1        0.0001
      5 C          59.6250   90.1051    8.9246 C.ar    1  UNL1        0.0045
      6 C          60.4353   88.9554    9.4456 C.ar    1  UNL1        0.0536
      7 C          60.9793   88.9935   10.8430 C.2     1  UNL1        0.2490
      8 O          60.3531   88.1515   11.9148 O.2     1  UNL1       -0.2699
      9 N          62.1495   89.8737   11.1685 N.am    1  UNL1       -0.2761
     10 C          62.7757   90.7157   10.0966 C.3     1  UNL1        0.0942
     11 C          63.9459   91.5958   10.4221 C.3     1  UNL1        0.0292
     12 C          64.4900   91.6340   11.8195 C.3     1  UNL1        0.0653
     13 C          63.8637   90.7920   12.8913 C.3     1  UNL1        0.0292
     14 C          62.6935   89.9118   12.5658 C.3     1  UNL1        0.0942
     15 C          65.6601   92.5141   12.1450 C.2     1  UNL1        0.1727
     16 O          66.2506   92.4973   13.5237 O.2     1  UNL1       -0.2913
     17 C          66.2399   93.4111   11.0917 C.ar    1  UNL1        0.0348
     18 C          65.7797   94.8345   10.9825 C.ar    1  UNL1        0.0051
     19 C          66.3594   95.7315    9.9292 C.ar    1  UNL1        0.0297
     20 C          67.3993   95.2050    8.9851 C.ar    1  UNL1        0.1401
     21 F          67.9790   96.1019    7.9318 F       1  UNL1       -0.2042
     22 C          67.8595   93.7815    9.0943 C.ar    1  UNL1        0.0297
     23 C          67.2798   92.8846   10.1476 C.ar    1  UNL1        0.0051
     24 C          63.1326   84.3182   10.1322 C.ar    1  UNL1       -0.0061
     25 C          63.3802   84.8447    8.7496 C.ar    1  UNL1       -0.0029
     26 C          62.5699   85.9945    8.2286 C.ar    1  UNL1       -0.0003
     27 C          61.5119   86.6178    9.0902 C.ar    1  UNL1        0.0001
     28 C          61.2644   86.0913   10.4728 C.ar    1  UNL1       -0.0003
     29 C          62.0747   84.9415   10.9938 C.ar    1  UNL1       -0.0029
     30 C          63.9429   83.1685   10.6532 C.3     1  UNL1        0.0992
     31 C          62.0890   79.4076   13.7222 C.3     1  UNL1        0.0186
     32 C          62.7502   80.7442   13.5602 C.3     1  UNL1        0.0702
     33 C          63.0160   81.2881   12.1878 C.3     1  UNL1        0.0882
     34 N          63.6772   82.6247   12.0257 N.3     1  UNL1       -0.2666
     35 C          64.0727   83.4174   13.2361 C.3     1  UNL1        0.0882
     36 C          63.8070   82.8736   14.6085 C.3     1  UNL1        0.0702
     37 C          64.2025   83.6664   15.8190 C.3     1  UNL1        0.0186
     38 N          63.1457   81.5370   14.7706 N.3     1  UNL1       -0.2974
     39 H          62.2950   81.6930   15.3113 H       1  UNL1        0.1232
@<TRIPOS>BOND
     1    32    31    1
     2    32    33    1
     3    33    34    1
     4    34    30    1
     5    30    24    1
     6    24    25   ar
     7    25    26   ar
     8    26    27   ar
     9    27     1    1
    10     1     2   ar
    11     2     3   ar
    12     3     4   ar
    13     4     5   ar
    14     5     6   ar
    15     6     7    1
    16     7     8    2
    17     7     9   am
    18     9    10    1
    19    10    11    1
    20    11    12    1
    21    12    15    1
    22    15    16    2
    23    15    17    1
    24    17    18   ar
    25    18    19   ar
    26    19    20   ar
    27    20    21    1
    28    20    22   ar
    29    22    23   ar
    30    12    13    1
    31    13    14    1
    32    27    28   ar
    33    28    29   ar
    34    34    35    1
    35    35    36    1
    36    36    37    1
    37    36    38    1
    38    38    32    1
    39    29    24   ar
    40     6     1   ar
    41    14     9    1
    42    23    17   ar
    43    38    39    1
@<TRIPOS>MOLECULE
*****
 39 43 0 0 0
SMALL
GASTEIGER

@<TRIPOS>ATOM
      1 C          60.7457   87.7300    8.6244 C.ar    1  UNL1        0.0044
      2 C          60.1204   87.6681    7.2623 C.ar    1  UNL1        0.0001
      3 C          59.3151   88.8267    6.7533 C.ar    1  UNL1        0.0000
      4 C          59.1352   90.0474    7.6064 C.ar    1  UNL1        0.0001
      5 C          59.7605   90.1093    8.9685 C.ar    1  UNL1        0.0045
      6 C          60.5657   88.9506    9.4774 C.ar    1  UNL1        0.0536
      7 C          61.1910   89.0126   10.8395 C.2     1  UNL1        0.2490
      8 O          60.6966   88.1131   11.9334 O.2     1  UNL1       -0.2699
      9 N          62.3107   89.9739   11.1077 N.am    1  UNL1       -0.2761
     10 C          62.8052   90.8734   10.0139 C.3     1  UNL1        0.0942
     11 C          63.9249   91.8348   10.2820 C.3     1  UNL1        0.0292
     12 C          64.5502   91.8967   11.6441 C.3     1  UNL1        0.0653
     13 C          64.0558   90.9973   12.7380 C.3     1  UNL1        0.0292
     14 C          62.9360   90.0359   12.4697 C.3     1  UNL1        0.0942
     15 C          65.6699   92.8581   11.9123 C.2     1  UNL1        0.1727
     16 O          65.9188   94.0005   10.9727 O.2     1  UNL1       -0.2913
     17 C          66.5408   92.6770   13.1201 C.ar    1  UNL1        0.0348
     18 C          66.1279   93.2640   14.4373 C.ar    1  UNL1        0.0051
     19 C          66.9988   93.0829   15.6451 C.ar    1  UNL1        0.0297
     20 C          68.2826   92.3149   15.5357 C.ar    1  UNL1        0.1401
     21 F          69.1535   92.1339   16.7435 F       1  UNL1       -0.2042
     22 C          68.6955   91.7280   14.2186 C.ar    1  UNL1        0.0297
     23 C          67.8246   91.9090   13.0108 C.ar    1  UNL1        0.0051
     24 C          63.1615   84.2541   10.1512 C.ar    1  UNL1       -0.0061
     25 C          62.0638   84.8324   10.9943 C.ar    1  UNL1       -0.0029
     26 C          61.2586   85.9911   10.4853 C.ar    1  UNL1       -0.0003
     27 C          61.5510   86.5714    9.1333 C.ar    1  UNL1        0.0001
     28 C          62.6486   85.9930    8.2904 C.ar    1  UNL1       -0.0003
     29 C          63.4539   84.8344    8.7993 C.ar    1  UNL1       -0.0029
     30 C          63.9668   83.0954   10.6602 C.3     1  UNL1        0.0992
     31 C          64.2465   83.6183   15.8224 C.3     1  UNL1        0.0186
     32 C          63.8550   82.8154   14.6174 C.3     1  UNL1        0.0702
     33 C          64.1067   83.3568   13.2413 C.3     1  UNL1        0.0882
     34 N          63.7151   82.5540   12.0363 N.3     1  UNL1       -0.2666
     35 C          63.0718   81.2098   12.2073 C.3     1  UNL1        0.0882
     36 C          62.8201   80.6684   13.5833 C.3     1  UNL1        0.0702
     37 C          62.1768   79.3241   13.7544 C.3     1  UNL1        0.0186
     38 N          63.2117   81.4712   14.7884 N.3     1  UNL1       -0.2974
     39 H          63.8639   80.8987   15.3244 H       1  UNL1        0.1232
@<TRIPOS>BOND
     1    32    31    1
     2    32    33    1
     3    33    34    1
     4    34    30    1
     5    30    24    1
     6    24    25   ar
     7    25    26   ar
     8    26    27   ar
     9    27     1    1
    10     1     2   ar
    11     2     3   ar
    12     3     4   ar
    13     4     5   ar
    14     5     6   ar
    15     6     7    1
    16     7     8    2
    17     7     9   am
    18     9    10    1
    19    10    11    1
    20    11    12    1
    21    12    15    1
    22    15    16    2
    23    15    17    1
    24    17    18   ar
    25    18    19   ar
    26    19    20   ar
    27    20    21    1
    28    20    22   ar
    29    22    23   ar
    30    12    13    1
    31    13    14    1
    32    27    28   ar
    33    28    29   ar
    34    34    35    1
    35    35    36    1
    36    36    37    1
    37    36    38    1
    38    38    32    1
    39    29    24   ar
    40     6     1   ar
    41    14     9    1
    42    23    17   ar
    43    38    39    1
@<TRIPOS>MOLECULE
*****
 39 43 0 0 0
SMALL
GASTEIGER

@<TRIPOS>ATOM
      1 C          60.7255   87.7509    8.8963 C.ar    1  UNL1        0.0044
      2 C          60.2464   87.5567    7.4881 C.ar    1  UNL1        0.0001
      3 C          59.4269   88.6213    6.8212 C.ar    1  UNL1        0.0000
      4 C          59.0863   89.8802    7.5624 C.ar    1  UNL1        0.0001
      5 C          59.5654   90.0744    8.9705 C.ar    1  UNL1        0.0045
      6 C          60.3850   89.0097    9.6374 C.ar    1  UNL1        0.0536
      7 C          60.8640   89.2040   11.0456 C.2     1  UNL1        0.2490
      8 O          60.1227   88.5687   12.1843 O.2     1  UNL1       -0.2699
      9 N          62.0844   90.0334   11.3149 N.am    1  UNL1       -0.2761
     10 C          62.8258   90.6687   10.1762 C.3     1  UNL1        0.0942
     11 C          64.0462   91.4982   10.4455 C.3     1  UNL1        0.0292
     12 C          64.5253   91.6924   11.8537 C.3     1  UNL1        0.0653
     13 C          63.7839   91.0571   12.9924 C.3     1  UNL1        0.0292
     14 C          62.5634   90.2276   12.7230 C.3     1  UNL1        0.0942
     15 C          65.7457   92.5218   12.1230 C.2     1  UNL1        0.1727
     16 O          66.4396   92.4264   13.4494 O.2     1  UNL1       -0.2913
     17 C          66.2721   93.4468   11.0660 C.ar    1  UNL1        0.0348
     18 C          67.2487   92.9413   10.0458 C.ar    1  UNL1        0.0051
     19 C          67.7751   93.8663    8.9887 C.ar    1  UNL1        0.0297
     20 C          67.3251   95.2967    8.9519 C.ar    1  UNL1        0.1401
     21 F          67.8515   96.2216    7.8949 F       1  UNL1       -0.2042
     22 C          66.3486   95.8021    9.9721 C.ar    1  UNL1        0.0297
     23 C          65.8221   94.8772   11.0292 C.ar    1  UNL1        0.0051
     24 C          63.1843   84.5569   10.8970 C.ar    1  UNL1       -0.0061
     25 C          62.1738   85.3322   11.6895 C.ar    1  UNL1       -0.0029
     26 C          61.3542   86.3968   11.0226 C.ar    1  UNL1       -0.0003
     27 C          61.5451   86.6863    9.5632 C.ar    1  UNL1        0.0001
     28 C          62.5556   85.9111    8.7708 C.ar    1  UNL1       -0.0003
     29 C          63.3751   84.8464    9.4377 C.ar    1  UNL1       -0.0029
     30 C          64.0039   83.4923   11.5640 C.3     1  UNL1        0.0992
     31 C          61.8191   79.7355   14.4124 C.3     1  UNL1        0.0186
     32 C          62.3752   80.2179   13.1055 C.3     1  UNL1        0.0702
     33 C          62.9115   81.6139   12.9882 C.3     1  UNL1        0.0882
     34 N          63.4676   82.0963   11.6813 N.3     1  UNL1       -0.2666
     35 C          63.4875   81.1828   10.4917 C.3     1  UNL1        0.0882
     36 C          62.9513   79.7869   10.6091 C.3     1  UNL1        0.0702
     37 C          62.9712   78.8733    9.4195 C.3     1  UNL1        0.0186
     38 N          62.3952   79.3044   11.9160 N.3     1  UNL1       -0.2974
     39 H          62.9402   78.4848   12.1833 H       1  UNL1        0.1232
@<TRIPOS>BOND
     1    32    31    1
     2    32    33    1
     3    33    34    1
     4    34    30    1
     5    30    24    1
     6    24    25   ar
     7    25    26   ar
     8    26    27   ar
     9    27     1    1
    10     1     2   ar
    11     2     3   ar
    12     3     4   ar
    13     4     5   ar
    14     5     6   ar
    15     6     7    1
    16     7     8    2
    17     7     9   am
    18     9    10    1
    19    10    11    1
    20    11    12    1
    21    12    15    1
    22    15    16    2
    23    15    17    1
    24    17    18   ar
    25    18    19   ar
    26    19    20   ar
    27    20    21    1
    28    20    22   ar
    29    22    23   ar
    30    12    13    1
    31    13    14    1
    32    27    28   ar
    33    28    29   ar
    34    34    35    1
    35    35    36    1
    36    36    37    1
    37    36    38    1
    38    38    32    1
    39    29    24   ar
    40     6     1   ar
    41    14     9    1
    42    23    17   ar
    43    38    39    1
@<TRIPOS>MOLECULE
*****
 39 43 0 0 0
SMALL
GASTEIGER

@<TRIPOS>ATOM
      1 C          65.6886   91.7222   13.4752 C.ar    1  UNL1        0.0044
      2 C          66.9216   92.2167   12.7784 C.ar    1  UNL1        0.0001
      3 C          68.1261   92.6158   13.5783 C.ar    1  UNL1        0.0000
      4 C          68.0976   92.5206   15.0751 C.ar    1  UNL1        0.0001
      5 C          66.8647   92.0261   15.7718 C.ar    1  UNL1        0.0045
      6 C          65.6602   91.6270   14.9719 C.ar    1  UNL1        0.0536
      7 C          64.4273   91.1325   15.6687 C.2     1  UNL1        0.2490
      8 O          63.5210   92.1021   16.3676 O.2     1  UNL1       -0.2699
      9 N          64.1007   89.6685   15.6666 N.am    1  UNL1       -0.2761
     10 C          65.0071   88.6989   14.9677 C.3     1  UNL1        0.0942
     11 C          64.6805   87.2349   14.9656 C.3     1  UNL1        0.0292
     12 C          63.4476   86.7405   15.6624 C.3     1  UNL1        0.0653
     13 C          62.5412   87.7101   16.3613 C.3     1  UNL1        0.0292
     14 C          62.8679   89.1741   16.3634 C.3     1  UNL1        0.0942
     15 C          63.1210   85.2765   15.6603 C.2     1  UNL1        0.1727
     16 O          62.5973   84.6231   16.9048 O.2     1  UNL1       -0.2913
     17 C          63.3182   84.4658   14.4137 C.ar    1  UNL1        0.0348
     18 C          64.1032   83.1888   14.4658 C.ar    1  UNL1        0.0051
     19 C          64.3004   82.3782   13.2193 C.ar    1  UNL1        0.0297
     20 C          63.7125   82.8446   11.9205 C.ar    1  UNL1        0.1401
     21 F          63.9096   82.0339   10.6739 F       1  UNL1       -0.2042
     22 C          62.9274   84.1216   11.8684 C.ar    1  UNL1        0.0297
     23 C          62.7303   84.9323   13.1150 C.ar    1  UNL1        0.0051
     24 C          62.0752   90.5247   11.0754 C.ar    1  UNL1       -0.0061
     25 C          62.1778   90.1368   12.5208 C.ar    1  UNL1       -0.0029
     26 C          63.3823   90.5360   13.3207 C.ar    1  UNL1       -0.0003
     27 C          64.4842   91.3230   12.6753 C.ar    1  UNL1        0.0001
     28 C          64.3816   91.7108   11.2299 C.ar    1  UNL1       -0.0003
     29 C          63.1771   91.3116   10.4300 C.ar    1  UNL1       -0.0029
     30 C          60.8708   90.1255   10.2754 C.3     1  UNL1        0.0992
     31 C          63.2306   85.7055    8.8988 C.3     1  UNL1        0.0186
     32 C          62.0113   86.5790    8.9072 C.3     1  UNL1        0.0702
     33 C          62.0507   87.9154    9.5871 C.3     1  UNL1        0.0882
     34 N          60.8313   88.7890    9.5954 N.3     1  UNL1       -0.2666
     35 C          59.5725   88.3261    8.9238 C.3     1  UNL1        0.0882
     36 C          59.5331   86.9896    8.2439 C.3     1  UNL1        0.0702
     37 C          58.2742   86.5267    7.5723 C.3     1  UNL1        0.0186
     38 N          60.7525   86.1161    8.2356 N.3     1  UNL1       -0.2974
     39 H          60.9861   85.9459    7.2574 H       1  UNL1        0.1232
@<TRIPOS>BOND
     1    32    31    1
     2    32    33    1
     3    33    34    1
     4    34    30    1
     5    30    24    1
     6    24    25   ar
     7    25    26   ar
     8    26    27   ar
     9    27     1    1
    10     1     2   ar
    11     2     3   ar
    12     3     4   ar
    13     4     5   ar
    14     5     6   ar
    15     6     7    1
    16     7     8    2
    17     7     9   am
    18     9    10    1
    19    10    11    1
    20    11    12    1
    21    12    15    1
    22    15    16    2
    23    15    17    1
    24    17    18   ar
    25    18    19   ar
    26    19    20   ar
    27    20    21    1
    28    20    22   ar
    29    22    23   ar
    30    12    13    1
    31    13    14    1
    32    27    28   ar
    33    28    29   ar
    34    34    35    1
    35    35    36    1
    36    36    37    1
    37    36    38    1
    38    38    32    1
    39    29    24   ar
    40     6     1   ar
    41    14     9    1
    42    23    17   ar
    43    38    39    1
@<TRIPOS>MOLECULE
*****
 39 43 0 0 0
SMALL
GASTEIGER

@<TRIPOS>ATOM
      1 C          64.6194   90.9903   13.3457 C.ar    1  UNL1        0.0044
      2 C          65.5493   91.7623   12.4571 C.ar    1  UNL1        0.0001
      3 C          66.7188   92.4918   13.0488 C.ar    1  UNL1        0.0000
      4 C          66.9584   92.4494   14.5289 C.ar    1  UNL1        0.0001
      5 C          66.0286   91.6774   15.4174 C.ar    1  UNL1        0.0045
      6 C          64.8591   90.9478   14.8258 C.ar    1  UNL1        0.0536
      7 C          63.9293   90.1758   15.7143 C.2     1  UNL1        0.2490
      8 O          63.0409   90.9012   16.6810 O.2     1  UNL1       -0.2699
      9 N          63.8878   88.6785   15.6361 N.am    1  UNL1       -0.2761
     10 C          64.7762   87.9530   14.6694 C.3     1  UNL1        0.0942
     11 C          64.7348   86.4557   14.5912 C.3     1  UNL1        0.0292
     12 C          63.8050   85.6837   15.4798 C.3     1  UNL1        0.0653
     13 C          62.9166   86.4091   16.4465 C.3     1  UNL1        0.0292
     14 C          62.9580   87.9065   16.5247 C.3     1  UNL1        0.0942
     15 C          63.7636   84.1863   15.4016 C.2     1  UNL1        0.1727
     16 O          63.8675   83.3668   16.6536 O.2     1  UNL1       -0.2913
     17 C          63.6182   83.5085   14.0714 C.ar    1  UNL1        0.0348
     18 C          62.5104   82.5218   13.8495 C.ar    1  UNL1        0.0051
     19 C          62.3650   81.8440   12.5193 C.ar    1  UNL1        0.0297
     20 C          63.3274   82.1528   11.4111 C.ar    1  UNL1        0.1401
     21 F          63.1820   81.4749   10.0809 F       1  UNL1       -0.2042
     22 C          64.4352   83.1394   11.6329 C.ar    1  UNL1        0.0297
     23 C          64.5806   83.8173   12.9631 C.ar    1  UNL1        0.0051
     24 C          61.1109   88.8016   11.5708 C.ar    1  UNL1       -0.0061
     25 C          60.9446   90.2070   12.0683 C.ar    1  UNL1       -0.0029
     26 C          62.1140   90.9365   12.6599 C.ar    1  UNL1       -0.0003
     27 C          63.4499   90.2607   12.7541 C.ar    1  UNL1        0.0001
     28 C          63.6163   88.8554   12.2566 C.ar    1  UNL1       -0.0003
     29 C          62.4468   88.1259   11.6650 C.ar    1  UNL1       -0.0029
     30 C          59.9414   88.0720   10.9792 C.3     1  UNL1        0.0992
     31 C          58.9573   89.8139    6.1836 C.3     1  UNL1        0.0186
     32 C          59.3834   88.7068    7.1016 C.3     1  UNL1        0.0702
     33 C          59.4494   88.9430    8.5814 C.3     1  UNL1        0.0882
     34 N          59.8755   87.8358    9.4993 N.3     1  UNL1       -0.2666
     35 C          60.2357   86.4925    8.9375 C.3     1  UNL1        0.0882
     36 C          60.1697   86.2563    7.4577 C.3     1  UNL1        0.0702
     37 C          60.5299   84.9129    6.8958 C.3     1  UNL1        0.0186
     38 N          59.7436   87.3634    6.5397 N.3     1  UNL1       -0.2974
     39 H          58.9248   87.0271    6.0330 H       1  UNL1        0.1232
@<TRIPOS>BOND
     1    32    31    1
     2    32    33    1
     3    33    34    1
     4    34    30    1
     5    30    24    1
     6    24    25   ar
     7    25    26   ar
     8    26    27   ar
     9    27     1    1
    10     1     2   ar
    11     2     3   ar
    12     3     4   ar
    13     4     5   ar
    14     5     6   ar
    15     6     7    1
    16     7     8    2
    17     7     9   am
    18     9    10    1
    19    10    11    1
    20    11    12    1
    21    12    15    1
    22    15    16    2
    23    15    17    1
    24    17    18   ar
    25    18    19   ar
    26    19    20   ar
    27    20    21    1
    28    20    22   ar
    29    22    23   ar
    30    12    13    1
    31    13    14    1
    32    27    28   ar
    33    28    29   ar
    34    34    35    1
    35    35    36    1
    36    36    37    1
    37    36    38    1
    38    38    32    1
    39    29    24   ar
    40     6     1   ar
    41    14     9    1
    42    23    17   ar
    43    38    39    1
