@<TRIPOS>MOLECULE
*****
 28 30 0 0 0
SMALL
GASTEIGER

@<TRIPOS>ATOM
      1 C          62.8970   84.5366   15.5586 C.2     1  UNL1       -0.0010
      2 C          63.3664   85.8875   15.1061 C.2     1  UNL1        0.0168
      3 C          63.8389   86.2402   13.7269 C.3     1  UNL1        0.0344
      4 C          64.2101   87.6936   13.7216 C.3     1  UNL1        0.0344
      5 C          63.9670   88.2390   15.0976 C.2     1  UNL1        0.0168
      6 C          64.2037   89.6525   15.5403 C.2     1  UNL1       -0.0010
      7 C          63.4455   87.1228   15.9532 C.2     1  UNL1        0.1877
      8 O          63.0692   87.2241   17.4017 O.2     1  UNL1       -0.2872
      9 C          63.7692   82.2379   12.4433 C.ar    1  UNL1        0.1721
     10 C          63.7932   83.3856   13.4087 C.ar    1  UNL1        0.0400
     11 C          62.8730   83.3887   14.5932 C.ar    1  UNL1        0.0030
     12 C          61.9287   82.2440   14.8124 C.ar    1  UNL1        0.0033
     13 C          61.9047   81.0963   13.8470 C.ar    1  UNL1        0.0398
     14 C          62.8250   81.0932   12.6625 C.ar    1  UNL1        0.1677
     15 O          62.8009   79.9453   11.6970 O.3     1  UNL1       -0.5029
     16 H          62.2110   79.2303   11.8340 H       1  UNL1        0.2923
     17 C          64.3202   82.9962   10.0202 C.3     1  UNL1        0.2526
     18 O          64.6894   82.2348   11.2587 O.3     1  UNL1       -0.4684
     19 C          64.7314   90.6647   14.5671 C.ar    1  UNL1        0.0030
     20 C          63.9973   90.9268   13.2856 C.ar    1  UNL1        0.0033
     21 C          64.5251   91.9390   12.3125 C.ar    1  UNL1        0.0398
     22 C          65.7868   92.6891   12.6209 C.ar    1  UNL1        0.1677
     23 O          66.3146   93.7014   11.6478 O.3     1  UNL1       -0.5029
     24 C          66.5209   92.4271   13.9025 C.ar    1  UNL1        0.1721
     25 C          65.9932   91.4149   14.8756 C.ar    1  UNL1        0.0400
     26 H          65.8560   93.8651   10.8472 H       1  UNL1        0.2923
     27 O          67.7827   93.1773   14.2110 O.3     1  UNL1       -0.4684
     28 C          68.1210   93.5243   15.6305 C.3     1  UNL1        0.2526
@<TRIPOS>BOND
     1    17    18    1
     2    18     9    1
     3     9    10   ar
     4    10    11   ar
     5    11     1    1
     6     1     2    2
     7     2     3    1
     8     3     4    1
     9     4     5    1
    10     5     6    2
    11     6    19    1
    12    19    20   ar
    13    20    21   ar
    14    21    22   ar
    15    22    23    1
    16    22    24   ar
    17    24    27    1
    18    27    28    1
    19    24    25   ar
    20     5     7    1
    21     7     8    2
    22    11    12   ar
    23    12    13   ar
    24    13    14   ar
    25    14    15    1
    26    14     9   ar
    27     7     2    1
    28    25    19   ar
    29    23    26    1
    30    15    16    1
@<TRIPOS>MOLECULE
*****
 28 30 0 0 0
SMALL
GASTEIGER

@<TRIPOS>ATOM
      1 C          64.2710   89.6966   15.5642 C.2     1  UNL1       -0.0010
      2 C          64.0197   88.2847   15.1244 C.2     1  UNL1        0.0168
      3 C          64.2943   87.7239   13.7605 C.3     1  UNL1        0.0344
      4 C          63.8940   86.2783   13.7644 C.3     1  UNL1        0.0344
      5 C          63.3720   85.9456   15.1307 C.2     1  UNL1        0.0168
      6 C          62.8619   84.6078   15.5780 C.2     1  UNL1       -0.0010
      7 C          63.4497   87.1856   15.9712 C.2     1  UNL1        0.1877
      8 O          63.0308   87.3054   17.4066 O.2     1  UNL1       -0.2872
      9 C          66.7072   92.3922   13.9679 C.ar    1  UNL1        0.1721
     10 C          66.1294   91.3982   14.9312 C.ar    1  UNL1        0.0400
     11 C          64.8487   90.6907   14.6008 C.ar    1  UNL1        0.0030
     12 C          64.1457   90.9772   13.3071 C.ar    1  UNL1        0.0033
     13 C          64.7235   91.9713   12.3438 C.ar    1  UNL1        0.0398
     14 C          66.0042   92.6788   12.6742 C.ar    1  UNL1        0.1677
     15 O          66.5819   93.6729   11.7108 O.3     1  UNL1       -0.5029
     16 H          66.1428   93.8519   10.9027 H       1  UNL1        0.2923
     17 C          68.2966   93.4675   15.7193 C.3     1  UNL1        0.2526
     18 O          67.9879   93.0997   14.2982 O.3     1  UNL1       -0.4684
     19 C          62.8447   83.4534   14.6204 C.ar    1  UNL1        0.0030
     20 C          61.8838   82.3206   14.8284 C.ar    1  UNL1        0.0033
     21 C          61.8667   81.1662   13.8708 C.ar    1  UNL1        0.0398
     22 C          62.8104   81.1446   12.7051 C.ar    1  UNL1        0.1677
     23 O          62.7934   79.9902   11.7474 O.3     1  UNL1       -0.5029
     24 C          63.7714   82.2774   12.4970 C.ar    1  UNL1        0.1721
     25 C          63.7885   83.4319   13.4547 C.ar    1  UNL1        0.0400
     26 H          62.1931   79.2825   11.8773 H       1  UNL1        0.2923
     27 O          64.7152   82.2559   11.3314 O.3     1  UNL1       -0.4684
     28 C          64.3627   82.9826   10.0674 C.3     1  UNL1        0.2526
@<TRIPOS>BOND
     1    17    18    1
     2    18     9    1
     3     9    10   ar
     4    10    11   ar
     5    11     1    1
     6     1     2    2
     7     2     3    1
     8     3     4    1
     9     4     5    1
    10     5     6    2
    11     6    19    1
    12    19    20   ar
    13    20    21   ar
    14    21    22   ar
    15    22    23    1
    16    22    24   ar
    17    24    27    1
    18    27    28    1
    19    24    25   ar
    20     5     7    1
    21     7     8    2
    22    11    12   ar
    23    12    13   ar
    24    13    14   ar
    25    14    15    1
    26    14     9   ar
    27     7     2    1
    28    25    19   ar
    29    23    26    1
    30    15    16    1
@<TRIPOS>MOLECULE
*****
 28 30 0 0 0
SMALL
GASTEIGER

@<TRIPOS>ATOM
      1 C          63.0179   84.1784   15.5339 C.2     1  UNL1       -0.0010
      2 C          63.4193   85.5376   15.0427 C.2     1  UNL1        0.0168
      3 C          63.7806   85.8939   13.6312 C.3     1  UNL1        0.0344
      4 C          64.1146   87.3557   13.5930 C.3     1  UNL1        0.0344
      5 C          63.9597   87.9030   14.9809 C.2     1  UNL1        0.0168
      6 C          64.1934   89.3243   15.3995 C.2     1  UNL1       -0.0010
      7 C          63.5300   86.7793   15.8769 C.2     1  UNL1        0.1877
      8 O          63.2587   86.8798   17.3488 O.2     1  UNL1       -0.2872
      9 C          61.7683   80.8747   13.7243 C.ar    1  UNL1        0.1721
     10 C          61.8349   82.0282   14.6808 C.ar    1  UNL1        0.0400
     11 C          62.9513   83.0248   14.5774 C.ar    1  UNL1        0.0030
     12 C          64.0010   82.8677   13.5175 C.ar    1  UNL1        0.0033
     13 C          63.9344   81.7142   12.5610 C.ar    1  UNL1        0.0398
     14 C          62.8180   80.7177   12.6645 C.ar    1  UNL1        0.1677
     15 O          62.7514   79.5641   11.7079 O.3     1  UNL1       -0.5029
     16 H          63.4071   79.4660   11.0458 H       1  UNL1        0.2923
     17 C          59.2852   80.3247   14.2552 C.3     1  UNL1        0.2526
     18 O          60.6519   79.8782   13.8278 O.3     1  UNL1       -0.4684
     19 C          64.6232   90.3434   14.3862 C.ar    1  UNL1        0.0030
     20 C          63.7611   90.6224   13.1909 C.ar    1  UNL1        0.0033
     21 C          64.1909   91.6415   12.1776 C.ar    1  UNL1        0.0398
     22 C          65.4828   92.3816   12.3597 C.ar    1  UNL1        0.1677
     23 O          65.9127   93.4008   11.3464 O.3     1  UNL1       -0.5029
     24 C          66.3450   92.1027   13.5551 C.ar    1  UNL1        0.1721
     25 C          65.9151   91.0835   14.5683 C.ar    1  UNL1        0.0400
     26 H          65.3742   93.5751   10.5997 H       1  UNL1        0.2923
     27 O          67.6369   92.8428   13.7372 O.3     1  UNL1       -0.4684
     28 C          68.3839   92.7397   15.0339 C.3     1  UNL1        0.2526
@<TRIPOS>BOND
     1    17    18    1
     2    18     9    1
     3     9    10   ar
     4    10    11   ar
     5    11     1    1
     6     1     2    2
     7     2     3    1
     8     3     4    1
     9     4     5    1
    10     5     6    2
    11     6    19    1
    12    19    20   ar
    13    20    21   ar
    14    21    22   ar
    15    22    23    1
    16    22    24   ar
    17    24    27    1
    18    27    28    1
    19    24    25   ar
    20     5     7    1
    21     7     8    2
    22    11    12   ar
    23    12    13   ar
    24    13    14   ar
    25    14    15    1
    26    14     9   ar
    27     7     2    1
    28    25    19   ar
    29    23    26    1
    30    15    16    1
@<TRIPOS>MOLECULE
*****
 28 30 0 0 0
SMALL
GASTEIGER

@<TRIPOS>ATOM
      1 C          62.4014   84.9272   11.7090 C.2     1  UNL1       -0.0010
      2 C          62.9485   86.1713   12.3438 C.2     1  UNL1        0.0168
      3 C          63.7002   86.2424   13.6399 C.3     1  UNL1        0.0344
      4 C          64.0562   87.6777   13.8912 C.3     1  UNL1        0.0344
      5 C          63.5245   88.4937   12.7504 C.2     1  UNL1        0.0168
      6 C          63.6546   89.9798   12.5934 C.2     1  UNL1       -0.0010
      7 C          62.8399   87.5627   11.7941 C.2     1  UNL1        0.1877
      8 O          62.1652   87.9543   10.5129 O.2     1  UNL1       -0.2872
      9 C          62.8131   81.0145   12.2298 C.ar    1  UNL1        0.1721
     10 C          62.6262   82.3432   11.5593 C.ar    1  UNL1        0.0400
     11 C          62.5883   83.5985   12.3795 C.ar    1  UNL1        0.0030
     12 C          62.7374   83.5251   13.8703 C.ar    1  UNL1        0.0033
     13 C          62.9243   82.1965   14.5408 C.ar    1  UNL1        0.0398
     14 C          62.9621   80.9412   13.7205 C.ar    1  UNL1        0.1677
     15 O          63.1491   79.6124   14.3911 O.3     1  UNL1       -0.5029
     16 H          63.2422   79.5666   15.3224 H       1  UNL1        0.2923
     17 C          62.9165   79.8427    9.9134 C.3     1  UNL1        0.2526
     18 O          62.8509   79.7592   11.4096 O.3     1  UNL1       -0.4684
     19 C          64.3707   90.7843   13.6375 C.ar    1  UNL1        0.0030
     20 C          63.8047   90.8891   15.0226 C.ar    1  UNL1        0.0033
     21 C          64.5208   91.6936   16.0665 C.ar    1  UNL1        0.0398
     22 C          65.8029   92.3933   15.7254 C.ar    1  UNL1        0.1677
     23 O          66.5191   93.1979   16.7694 O.3     1  UNL1       -0.5029
     24 C          66.3690   92.2886   14.3403 C.ar    1  UNL1        0.1721
     25 C          65.6528   91.4841   13.2963 C.ar    1  UNL1        0.0400
     26 H          66.1655   93.2634   17.6347 H       1  UNL1        0.2923
     27 O          67.6512   92.9884   13.9991 O.3     1  UNL1       -0.4684
     28 C          68.8978   92.6923   14.7790 C.3     1  UNL1        0.2526
@<TRIPOS>BOND
     1    17    18    1
     2    18     9    1
     3     9    10   ar
     4    10    11   ar
     5    11     1    1
     6     1     2    2
     7     2     3    1
     8     3     4    1
     9     4     5    1
    10     5     6    2
    11     6    19    1
    12    19    20   ar
    13    20    21   ar
    14    21    22   ar
    15    22    23    1
    16    22    24   ar
    17    24    27    1
    18    27    28    1
    19    24    25   ar
    20     5     7    1
    21     7     8    2
    22    11    12   ar
    23    12    13   ar
    24    13    14   ar
    25    14    15    1
    26    14     9   ar
    27     7     2    1
    28    25    19   ar
    29    23    26    1
    30    15    16    1
@<TRIPOS>MOLECULE
*****
 28 30 0 0 0
SMALL
GASTEIGER

@<TRIPOS>ATOM
      1 C          62.9540   84.8385   15.6469 C.2     1  UNL1       -0.0010
      2 C          63.4149   86.1821   15.1648 C.2     1  UNL1        0.0168
      3 C          63.8798   86.5089   13.7766 C.3     1  UNL1        0.0344
      4 C          64.2441   87.9635   13.7401 C.3     1  UNL1        0.0344
      5 C          64.0044   88.5358   15.1057 C.2     1  UNL1        0.0168
      6 C          64.2363   89.9591   15.5185 C.2     1  UNL1       -0.0010
      7 C          63.4919   87.4348   15.9862 C.2     1  UNL1        0.1877
      8 O          63.1215   87.5639   17.4340 O.2     1  UNL1       -0.2872
      9 C          63.8312   82.4757   12.5813 C.ar    1  UNL1        0.1721
     10 C          63.8540   83.6430   13.5230 C.ar    1  UNL1        0.0400
     11 C          62.9312   83.6711   14.7052 C.ar    1  UNL1        0.0030
     12 C          61.9855   82.5319   14.9456 C.ar    1  UNL1        0.0033
     13 C          61.9626   81.3646   14.0039 C.ar    1  UNL1        0.0398
     14 C          62.8855   81.3365   12.8218 C.ar    1  UNL1        0.1677
     15 O          62.8627   80.1691   11.8801 O.3     1  UNL1       -0.5029
     16 H          62.2719   79.4575   12.0303 H       1  UNL1        0.2923
     17 C          64.3450   83.1012   10.1126 C.3     1  UNL1        0.2526
     18 O          64.7541   82.4476   11.3991 O.3     1  UNL1       -0.4684
     19 C          64.7549   90.9537   14.5225 C.ar    1  UNL1        0.0030
     20 C          65.8097   91.9403   14.9273 C.ar    1  UNL1        0.0033
     21 C          66.3282   92.9348   13.9313 C.ar    1  UNL1        0.0398
     22 C          65.7920   92.9427   12.5305 C.ar    1  UNL1        0.1677
     23 O          66.3105   93.9373   11.5344 O.3     1  UNL1       -0.5029
     24 C          64.7371   91.9561   12.1256 C.ar    1  UNL1        0.1721
     25 C          64.2186   90.9615   13.1217 C.ar    1  UNL1        0.0400
     26 H          66.9694   94.5536   11.7873 H       1  UNL1        0.2923
     27 O          64.2008   91.9639   10.7248 O.3     1  UNL1       -0.4684
     28 C          63.0199   91.1101   10.3690 C.3     1  UNL1        0.2526
@<TRIPOS>BOND
     1    17    18    1
     2    18     9    1
     3     9    10   ar
     4    10    11   ar
     5    11     1    1
     6     1     2    2
     7     2     3    1
     8     3     4    1
     9     4     5    1
    10     5     6    2
    11     6    19    1
    12    19    20   ar
    13    20    21   ar
    14    21    22   ar
    15    22    23    1
    16    22    24   ar
    17    24    27    1
    18    27    28    1
    19    24    25   ar
    20     5     7    1
    21     7     8    2
    22    11    12   ar
    23    12    13   ar
    24    13    14   ar
    25    14    15    1
    26    14     9   ar
    27     7     2    1
    28    25    19   ar
    29    23    26    1
    30    15    16    1
@<TRIPOS>MOLECULE
*****
 28 30 0 0 0
SMALL
GASTEIGER

@<TRIPOS>ATOM
      1 C          62.9989   84.1988   15.5449 C.2     1  UNL1       -0.0010
      2 C          63.4049   85.5537   15.0454 C.2     1  UNL1        0.0168
      3 C          63.7764   85.8979   13.6335 C.3     1  UNL1        0.0344
      4 C          64.1117   87.3592   13.5856 C.3     1  UNL1        0.0344
      5 C          63.9473   87.9181   14.9678 C.2     1  UNL1        0.0168
      6 C          64.1791   89.3427   15.3762 C.2     1  UNL1       -0.0010
      7 C          63.5105   86.8022   15.8700 C.2     1  UNL1        0.1877
      8 O          63.2287   86.9150   17.3390 O.2     1  UNL1       -0.2872
      9 C          61.7639   80.8770   13.7586 C.ar    1  UNL1        0.1721
     10 C          61.8246   82.0384   14.7059 C.ar    1  UNL1        0.0400
     11 C          62.9383   83.0373   14.5976 C.ar    1  UNL1        0.0030
     12 C          63.9915   82.8748   13.5419 C.ar    1  UNL1        0.0033
     13 C          63.9308   81.7134   12.5946 C.ar    1  UNL1        0.0398
     14 C          62.8171   80.7145   12.7030 C.ar    1  UNL1        0.1677
     15 O          62.7565   79.5531   11.7556 O.3     1  UNL1       -0.5029
     16 H          63.4143   79.4516   11.0961 H       1  UNL1        0.2923
     17 C          59.2724   80.3297   14.2514 C.3     1  UNL1        0.2526
     18 O          60.6502   79.8781   13.8670 O.3     1  UNL1       -0.4684
     19 C          64.6168   90.3531   14.3576 C.ar    1  UNL1        0.0030
     20 C          65.8205   91.2089   14.6192 C.ar    1  UNL1        0.0033
     21 C          66.2580   92.2192   13.6005 C.ar    1  UNL1        0.0398
     22 C          65.4920   92.3737   12.3203 C.ar    1  UNL1        0.1677
     23 O          65.9296   93.3841   11.3015 O.3     1  UNL1       -0.5029
     24 C          64.2882   91.5179   12.0586 C.ar    1  UNL1        0.1721
     25 C          63.8506   90.5075   13.0773 C.ar    1  UNL1        0.0400
     26 H          66.6815   93.9188   11.4649 H       1  UNL1        0.2923
     27 O          63.5220   91.6723   10.7783 O.3     1  UNL1       -0.4684
     28 C          62.6662   90.5474   10.2760 C.3     1  UNL1        0.2526
@<TRIPOS>BOND
     1    17    18    1
     2    18     9    1
     3     9    10   ar
     4    10    11   ar
     5    11     1    1
     6     1     2    2
     7     2     3    1
     8     3     4    1
     9     4     5    1
    10     5     6    2
    11     6    19    1
    12    19    20   ar
    13    20    21   ar
    14    21    22   ar
    15    22    23    1
    16    22    24   ar
    17    24    27    1
    18    27    28    1
    19    24    25   ar
    20     5     7    1
    21     7     8    2
    22    11    12   ar
    23    12    13   ar
    24    13    14   ar
    25    14    15    1
    26    14     9   ar
    27     7     2    1
    28    25    19   ar
    29    23    26    1
    30    15    16    1
@<TRIPOS>MOLECULE
*****
 28 30 0 0 0
SMALL
GASTEIGER

@<TRIPOS>ATOM
      1 C          45.1231   71.8444   17.9850 C.2     1  UNL1       -0.0010
      2 C          45.4295   73.2918   18.2322 C.2     1  UNL1        0.0168
      3 C          45.6012   74.3486   17.1816 C.3     1  UNL1        0.0344
      4 C          45.8957   75.6465   17.8734 C.3     1  UNL1        0.0344
      5 C          45.9060   75.3920   19.3516 C.2     1  UNL1        0.0168
      6 C          46.1599   76.4133   20.4204 C.2     1  UNL1       -0.0010
      7 C          45.6179   73.9367   19.5733 C.2     1  UNL1        0.1877
      8 O          45.5330   73.2473   20.9028 O.2     1  UNL1       -0.2872
      9 C          45.7999   69.8789   14.6043 C.ar    1  UNL1        0.1721
     10 C          45.9619   70.3822   16.0080 C.ar    1  UNL1        0.0400
     11 C          44.9610   71.3411   16.5812 C.ar    1  UNL1        0.0030
     12 C          43.7981   71.7968   15.7507 C.ar    1  UNL1        0.0033
     13 C          43.6360   71.2936   14.3470 C.ar    1  UNL1        0.0398
     14 C          44.6369   70.3346   13.7738 C.ar    1  UNL1        0.1677
     15 O          44.4748   69.8314   12.3700 O.3     1  UNL1       -0.5029
     16 H          43.7483   70.1161   11.8513 H       1  UNL1        0.2923
     17 C          46.8766   67.5151   14.5512 C.3     1  UNL1        0.2526
     18 O          46.8008   68.9200   14.0311 O.3     1  UNL1       -0.4684
     19 C          46.4356   77.8391   20.0448 C.ar    1  UNL1        0.0030
     20 C          47.6938   78.1909   19.3080 C.ar    1  UNL1        0.0033
     21 C          47.9694   79.6167   18.9324 C.ar    1  UNL1        0.0398
     22 C          46.9867   80.6908   19.2938 C.ar    1  UNL1        0.1677
     23 O          47.2623   82.1167   18.9183 O.3     1  UNL1       -0.5029
     24 C          45.7284   80.3391   20.0307 C.ar    1  UNL1        0.1721
     25 C          45.4529   78.9132   20.4062 C.ar    1  UNL1        0.0400
     26 H          48.0483   82.3365   18.4579 H       1  UNL1        0.2923
     27 O          44.7457   81.4132   20.3921 O.3     1  UNL1       -0.4684
     28 C          43.9438   82.0880   19.3190 C.3     1  UNL1        0.2526
@<TRIPOS>BOND
     1    17    18    1
     2    18     9    1
     3     9    10   ar
     4    10    11   ar
     5    11     1    1
     6     1     2    2
     7     2     3    1
     8     3     4    1
     9     4     5    1
    10     5     6    2
    11     6    19    1
    12    19    20   ar
    13    20    21   ar
    14    21    22   ar
    15    22    23    1
    16    22    24   ar
    17    24    27    1
    18    27    28    1
    19    24    25   ar
    20     5     7    1
    21     7     8    2
    22    11    12   ar
    23    12    13   ar
    24    13    14   ar
    25    14    15    1
    26    14     9   ar
    27     7     2    1
    28    25    19   ar
    29    23    26    1
    30    15    16    1
@<TRIPOS>MOLECULE
*****
 28 30 0 0 0
SMALL
GASTEIGER

@<TRIPOS>ATOM
      1 C          61.9517   85.5870   11.3433 C.2     1  UNL1       -0.0010
      2 C          62.6251   86.8458   11.8038 C.2     1  UNL1        0.0168
      3 C          63.6249   86.9545   12.9167 C.3     1  UNL1        0.0344
      4 C          64.0347   88.3927   13.0330 C.3     1  UNL1        0.0344
      5 C          63.2881   89.1729   11.9918 C.2     1  UNL1        0.0168
      6 C          63.3941   90.6499   11.7524 C.2     1  UNL1       -0.0010
      7 C          62.4170   88.2169   11.2322 C.2     1  UNL1        0.1877
      8 O          61.4989   88.5700   10.0997 O.2     1  UNL1       -0.2872
      9 C          62.6956   82.9127   14.1796 C.ar    1  UNL1        0.1721
     10 C          62.3858   84.2177   13.5082 C.ar    1  UNL1        0.0400
     11 C          62.2616   84.2819   12.0147 C.ar    1  UNL1        0.0030
     12 C          62.4472   83.0410   11.1927 C.ar    1  UNL1        0.0033
     13 C          62.7571   81.7360   11.8641 C.ar    1  UNL1        0.0398
     14 C          62.8812   81.6718   13.3576 C.ar    1  UNL1        0.1677
     15 O          63.1911   80.3667   14.0290 O.3     1  UNL1       -0.5029
     16 H          63.3070   79.5916   13.5155 H       1  UNL1        0.2923
     17 C          62.8299   84.1130   16.4799 C.3     1  UNL1        0.2526
     18 O          62.8198   82.8485   15.6731 O.3     1  UNL1       -0.4684
     19 C          64.3130   91.4824   12.5966 C.ar    1  UNL1        0.0030
     20 C          64.4412   91.2035   14.0648 C.ar    1  UNL1        0.0033
     21 C          65.3601   92.0361   14.9089 C.ar    1  UNL1        0.0398
     22 C          66.1507   93.1475   14.2848 C.ar    1  UNL1        0.1677
     23 O          67.0696   93.9802   15.1289 O.3     1  UNL1       -0.5029
     24 C          66.0225   93.4265   12.8166 C.ar    1  UNL1        0.1721
     25 C          65.1035   92.5939   11.9725 C.ar    1  UNL1        0.0400
     26 H          67.1497   93.8059   16.0461 H       1  UNL1        0.2923
     27 O          66.8130   94.5380   12.1924 O.3     1  UNL1       -0.4684
     28 C          66.3736   95.1289   10.8856 C.3     1  UNL1        0.2526
@<TRIPOS>BOND
     1    17    18    1
     2    18     9    1
     3     9    10   ar
     4    10    11   ar
     5    11     1    1
     6     1     2    2
     7     2     3    1
     8     3     4    1
     9     4     5    1
    10     5     6    2
    11     6    19    1
    12    19    20   ar
    13    20    21   ar
    14    21    22   ar
    15    22    23    1
    16    22    24   ar
    17    24    27    1
    18    27    28    1
    19    24    25   ar
    20     5     7    1
    21     7     8    2
    22    11    12   ar
    23    12    13   ar
    24    13    14   ar
    25    14    15    1
    26    14     9   ar
    27     7     2    1
    28    25    19   ar
    29    23    26    1
    30    15    16    1
@<TRIPOS>MOLECULE
*****
 28 30 0 0 0
SMALL
GASTEIGER

@<TRIPOS>ATOM
      1 C          64.1824   89.5109   15.4954 C.2     1  UNL1       -0.0010
      2 C          63.9468   88.0739   15.1358 C.2     1  UNL1        0.0168
      3 C          64.1790   87.4521   13.7906 C.3     1  UNL1        0.0344
      4 C          63.8133   86.0002   13.8816 C.3     1  UNL1        0.0344
      5 C          63.3550   85.7246   15.2830 C.2     1  UNL1        0.0168
      6 C          62.8950   84.4001   15.8158 C.2     1  UNL1       -0.0010
      7 C          63.4375   87.0062   16.0581 C.2     1  UNL1        0.1877
      8 O          63.0745   87.1881   17.5021 O.2     1  UNL1       -0.2872
      9 C          66.5603   92.0599   13.5984 C.ar    1  UNL1        0.1721
     10 C          66.0456   91.1027   14.6322 C.ar    1  UNL1        0.0400
     11 C          64.6971   90.4681   14.4615 C.ar    1  UNL1        0.0030
     12 C          63.8635   90.7907   13.2570 C.ar    1  UNL1        0.0033
     13 C          64.3782   91.7479   12.2232 C.ar    1  UNL1        0.0398
     14 C          65.7266   92.3825   12.3939 C.ar    1  UNL1        0.1677
     15 O          66.2413   93.3397   11.3600 O.3     1  UNL1       -0.5029
     16 H          65.7206   93.5412   10.6076 H       1  UNL1        0.2923
     17 C          68.4520   92.9426   15.1450 C.3     1  UNL1        0.2526
     18 O          67.9087   92.6944   13.7691 O.3     1  UNL1       -0.4684
     19 C          62.8662   83.1994   14.9171 C.ar    1  UNL1        0.0030
     20 C          64.1390   82.6825   14.3149 C.ar    1  UNL1        0.0033
     21 C          64.1100   81.4819   13.4163 C.ar    1  UNL1        0.0398
     22 C          62.8084   80.7981   13.1199 C.ar    1  UNL1        0.1677
     23 O          62.7794   79.5973   12.2212 O.3     1  UNL1       -0.5029
     24 C          61.5355   81.3149   13.7221 C.ar    1  UNL1        0.1721
     25 C          61.5644   82.5156   14.6208 C.ar    1  UNL1        0.0400
     26 H          63.5745   79.2745   11.8450 H       1  UNL1        0.2923
     27 O          60.2337   80.6311   13.4257 O.3     1  UNL1       -0.4684
     28 C          59.4253   80.0406   14.5428 C.3     1  UNL1        0.2526
@<TRIPOS>BOND
     1    17    18    1
     2    18     9    1
     3     9    10   ar
     4    10    11   ar
     5    11     1    1
     6     1     2    2
     7     2     3    1
     8     3     4    1
     9     4     5    1
    10     5     6    2
    11     6    19    1
    12    19    20   ar
    13    20    21   ar
    14    21    22   ar
    15    22    23    1
    16    22    24   ar
    17    24    27    1
    18    27    28    1
    19    24    25   ar
    20     5     7    1
    21     7     8    2
    22    11    12   ar
    23    12    13   ar
    24    13    14   ar
    25    14    15    1
    26    14     9   ar
    27     7     2    1
    28    25    19   ar
    29    23    26    1
    30    15    16    1
