@<TRIPOS>MOLECULE
*****
 37 39 0 0 0
SMALL
GASTEIGER

@<TRIPOS>ATOM
      1 C          63.8132   90.8073   13.1733 C.ar    1  UNL1       -0.0022
      2 C          64.3010   91.9530   12.3370 C.ar    1  UNL1        0.0012
      3 C          65.6742   92.5135   12.5607 C.ar    1  UNL1        0.0712
      4 C          66.5597   91.9282   13.6206 C.ar    1  UNL1        0.0038
      5 C          66.0719   90.7825   14.4569 C.ar    1  UNL1       -0.0002
      6 C          64.6987   90.2221   14.2333 C.ar    1  UNL1        0.0005
      7 C          64.2109   89.0763   15.0696 C.ar    1  UNL1        0.0334
      8 C          64.5367   87.6667   14.6737 C.ar    1  UNL1       -0.0009
      9 C          64.0490   86.5210   15.5099 C.ar    1  UNL1       -0.0164
     10 C          63.2353   86.7849   16.7422 C.ar    1  UNL1       -0.0008
     11 C          62.9094   88.1945   17.1381 C.ar    1  UNL1        0.0366
     12 C          63.3972   89.3402   16.3018 C.ar    1  UNL1        0.1386
     13 O          63.0713   90.7499   16.6977 O.3     1  UNL1       -0.4714
     14 C          64.1725   91.7533   16.8729 C.3     1  UNL1        0.2525
     15 C          64.3748   85.1114   15.1140 C.3     1  UNL1        0.0679
     16 C          63.2858   84.0826   15.0389 C.2     1  UNL1        0.0547
     17 O          63.6029   82.6360   15.2772 O.co2   1  UNL1       -0.5488
     18 O          61.8797   84.5004   14.7254 O.co2   1  UNL1       -0.5488
     19 C          66.1620   93.6592   11.7244 C.3     1  UNL1        0.4186
     20 F          66.6498   94.8049   10.8881 F       1  UNL1       -0.1659
     21 F          66.2840   94.5064   12.9562 F       1  UNL1       -0.1659
     22 F          66.0401   92.8121   10.4925 F       1  UNL1       -0.1659
     23 C          62.4399   90.2468   12.9497 C.3     1  UNL1        0.1234
     24 N          62.0120   89.8381   11.5714 N.am    1  UNL1       -0.2419
     25 C          60.6375   89.2806   11.3473 C.2     1  UNL1        0.4054
     26 O          59.6911   89.1319   12.5014 O.2     1  UNL1       -0.2262
     27 C          63.0043   91.2723    9.6458 C.3     1  UNL1        0.0234
     28 C          62.9584   89.9868   10.4173 C.3     1  UNL1        0.0971
     29 O          60.2096   88.8719    9.9689 O.3     1  UNL1       -0.4295
     30 C          59.9769   87.4238    9.6544 C.3     1  UNL1        0.2367
     31 C          61.0950   86.4350    9.8026 C.ar    1  UNL1        0.0214
     32 C          61.4201   85.8672   11.1523 C.ar    1  UNL1        0.0002
     33 C          62.5382   84.8784   11.3006 C.ar    1  UNL1        0.0112
     34 C          63.3314   84.4574   10.0991 C.ar    1  UNL1        0.0577
     35 CL         64.4496   83.4687   10.2473 Cl      1  UNL1       -0.0822
     36 C          63.0064   85.0253    8.7493 C.ar    1  UNL1        0.0112
     37 C          61.8882   86.0141    8.6011 C.ar    1  UNL1        0.0002
@<TRIPOS>UNITY_ATOM_ATTR
17 1
charge -1
@<TRIPOS>BOND
     1    27    28    1
     2    28    24    1
     3    24    23    1
     4    23     1    1
     5     1     2   ar
     6     2     3   ar
     7     3    19    1
     8    19    20    1
     9    19    21    1
    10    19    22    1
    11     3     4   ar
    12     4     5   ar
    13     5     6   ar
    14     6     7    1
    15     7     8   ar
    16     8     9   ar
    17     9    15    1
    18    15    16    1
    19    16    17   ar
    20    16    18   ar
    21     9    10   ar
    22    10    11   ar
    23    11    12   ar
    24    12    13    1
    25    13    14    1
    26    24    25   am
    27    25    26    2
    28    25    29    1
    29    29    30    1
    30    30    31    1
    31    31    32   ar
    32    32    33   ar
    33    33    34   ar
    34    34    35    1
    35    34    36   ar
    36    36    37   ar
    37     6     1   ar
    38    12     7   ar
    39    37    31   ar
@<TRIPOS>MOLECULE
*****
 37 39 0 0 0
SMALL
GASTEIGER

@<TRIPOS>ATOM
      1 C          63.9664   90.9463   12.6921 C.ar    1  UNL1       -0.0022
      2 C          64.5110   91.8984   11.6690 C.ar    1  UNL1        0.0012
      3 C          65.8897   92.4664   11.8318 C.ar    1  UNL1        0.0712
      4 C          66.7239   92.0822   13.0178 C.ar    1  UNL1        0.0038
      5 C          66.1793   91.1301   14.0410 C.ar    1  UNL1       -0.0002
      6 C          64.8006   90.5622   13.8781 C.ar    1  UNL1        0.0005
      7 C          64.2560   89.6100   14.9013 C.ar    1  UNL1        0.0334
      8 C          64.4143   88.1309   14.7086 C.ar    1  UNL1       -0.0009
      9 C          63.8697   87.1787   15.7318 C.ar    1  UNL1       -0.0164
     10 C          63.1668   87.7057   16.9476 C.ar    1  UNL1       -0.0008
     11 C          63.0085   89.1848   17.1403 C.ar    1  UNL1        0.0366
     12 C          63.5531   90.1370   16.1171 C.ar    1  UNL1        0.1386
     13 O          63.3948   91.6161   16.3098 O.3     1  UNL1       -0.4714
     14 C          64.4783   92.4049   16.9836 C.3     1  UNL1        0.2525
     15 C          64.0280   85.6996   15.5391 C.3     1  UNL1        0.0679
     16 C          62.8858   84.7769   15.8453 C.2     1  UNL1        0.0547
     17 O          61.5517   85.3393   16.2379 O.co2   1  UNL1       -0.5488
     18 O          63.0775   83.2917   15.7591 O.co2   1  UNL1       -0.5488
     19 C          66.4343   93.4185   10.8086 C.3     1  UNL1        0.4186
     20 F          66.9790   94.3706    9.7855 F       1  UNL1       -0.1659
     21 F          67.6588   92.5641   10.6653 F       1  UNL1       -0.1659
     22 F          65.2099   94.2730   10.9519 F       1  UNL1       -0.1659
     23 C          62.5877   90.3783   12.5293 C.3     1  UNL1        0.1234
     24 N          62.2134   89.6696   11.2614 N.am    1  UNL1       -0.2419
     25 C          62.5330   88.2136   11.0937 C.2     1  UNL1        0.4054
     26 O          63.2267   87.4665   12.1938 O.2     1  UNL1       -0.2262
     27 C          60.0556   90.2013    9.9156 C.3     1  UNL1        0.0234
     28 C          61.5196   90.4168   10.1613 C.3     1  UNL1        0.0971
     29 O          62.1587   87.5049    9.8258 O.3     1  UNL1       -0.4295
     30 C          61.5837   86.1206    9.8820 C.3     1  UNL1        0.2367
     31 C          62.3891   84.9970   10.4640 C.ar    1  UNL1        0.0214
     32 C          62.1844   84.5892   11.8929 C.ar    1  UNL1        0.0002
     33 C          62.9897   83.4656   12.4749 C.ar    1  UNL1        0.0112
     34 C          63.9999   82.7497   11.6281 C.ar    1  UNL1        0.0577
     35 CL         64.8052   81.6261   12.2101 Cl      1  UNL1       -0.0822
     36 C          64.2046   83.1575   10.1992 C.ar    1  UNL1        0.0112
     37 C          63.3992   84.2811    9.6172 C.ar    1  UNL1        0.0002
@<TRIPOS>UNITY_ATOM_ATTR
17 1
charge -1
@<TRIPOS>BOND
     1    27    28    1
     2    28    24    1
     3    24    23    1
     4    23     1    1
     5     1     2   ar
     6     2     3   ar
     7     3    19    1
     8    19    20    1
     9    19    21    1
    10    19    22    1
    11     3     4   ar
    12     4     5   ar
    13     5     6   ar
    14     6     7    1
    15     7     8   ar
    16     8     9   ar
    17     9    15    1
    18    15    16    1
    19    16    17   ar
    20    16    18   ar
    21     9    10   ar
    22    10    11   ar
    23    11    12   ar
    24    12    13    1
    25    13    14    1
    26    24    25   am
    27    25    26    2
    28    25    29    1
    29    29    30    1
    30    30    31    1
    31    31    32   ar
    32    32    33   ar
    33    33    34   ar
    34    34    35    1
    35    34    36   ar
    36    36    37   ar
    37     6     1   ar
    38    12     7   ar
    39    37    31   ar
@<TRIPOS>MOLECULE
*****
 37 39 0 0 0
SMALL
GASTEIGER

@<TRIPOS>ATOM
      1 C          63.8068   90.8214   13.3134 C.ar    1  UNL1       -0.0022
      2 C          64.2929   91.9896   12.5078 C.ar    1  UNL1        0.0012
      3 C          65.6841   92.5128   12.7094 C.ar    1  UNL1        0.0712
      4 C          66.5892   91.8678   13.7168 C.ar    1  UNL1        0.0038
      5 C          66.1032   90.6996   14.5224 C.ar    1  UNL1       -0.0002
      6 C          64.7120   90.1764   14.3207 C.ar    1  UNL1        0.0005
      7 C          64.2258   89.0082   15.1263 C.ar    1  UNL1        0.0334
      8 C          64.5626   87.6103   14.6990 C.ar    1  UNL1       -0.0009
      9 C          64.0765   86.4422   15.5046 C.ar    1  UNL1       -0.0164
     10 C          63.2536   86.6718   16.7376 C.ar    1  UNL1       -0.0008
     11 C          62.9168   88.0696   17.1649 C.ar    1  UNL1        0.0366
     12 C          63.4030   89.2378   16.3592 C.ar    1  UNL1        0.1386
     13 O          63.0662   90.6357   16.7866 O.3     1  UNL1       -0.4714
     14 C          64.1348   91.6879   16.8196 C.3     1  UNL1        0.2525
     15 C          64.4133   85.0443   15.0773 C.3     1  UNL1        0.0679
     16 C          63.3328   84.1321   14.5771 C.2     1  UNL1        0.0547
     17 O          62.8204   83.0263   15.4516 O.co2   1  UNL1       -0.5488
     18 O          62.7646   84.3255   13.2024 O.co2   1  UNL1       -0.5488
     19 C          66.1702   93.6810   11.9038 C.3     1  UNL1        0.4186
     20 F          66.6563   94.8492   11.0982 F       1  UNL1       -0.1659
     21 F          66.5710   94.3848   13.1663 F       1  UNL1       -0.1659
     22 F          65.7695   92.9772   10.6413 F       1  UNL1       -0.1659
     23 C          62.4155   90.2982   13.1117 C.3     1  UNL1        0.1234
     24 N          61.9683   89.8628   11.7477 N.am    1  UNL1       -0.2419
     25 C          60.5673   89.3687   11.5399 C.2     1  UNL1        0.4054
     26 O          59.6136   89.3100   12.6961 O.2     1  UNL1       -0.2262
     27 C          62.9386   91.1227    9.6932 C.3     1  UNL1        0.0234
     28 C          62.9221   89.9216   10.5915 C.3     1  UNL1        0.0971
     29 O          60.1202   88.9334   10.1759 O.3     1  UNL1       -0.4295
     30 C          59.7436   87.5022    9.9313 C.3     1  UNL1        0.2367
     31 C          60.5268   86.6771    8.9536 C.ar    1  UNL1        0.0214
     32 C          59.8538   86.1192    7.7347 C.ar    1  UNL1        0.0002
     33 C          60.6370   85.2941    6.7570 C.ar    1  UNL1        0.0112
     34 C          62.0932   85.0270    6.9982 C.ar    1  UNL1        0.0577
     35 CL         62.8763   84.2020    6.0205 Cl      1  UNL1       -0.0822
     36 C          62.7661   85.5850    8.2172 C.ar    1  UNL1        0.0112
     37 C          61.9829   86.4100    9.1948 C.ar    1  UNL1        0.0002
@<TRIPOS>UNITY_ATOM_ATTR
17 1
charge -1
@<TRIPOS>BOND
     1    27    28    1
     2    28    24    1
     3    24    23    1
     4    23     1    1
     5     1     2   ar
     6     2     3   ar
     7     3    19    1
     8    19    20    1
     9    19    21    1
    10    19    22    1
    11     3     4   ar
    12     4     5   ar
    13     5     6   ar
    14     6     7    1
    15     7     8   ar
    16     8     9   ar
    17     9    15    1
    18    15    16    1
    19    16    17   ar
    20    16    18   ar
    21     9    10   ar
    22    10    11   ar
    23    11    12   ar
    24    12    13    1
    25    13    14    1
    26    24    25   am
    27    25    26    2
    28    25    29    1
    29    29    30    1
    30    30    31    1
    31    31    32   ar
    32    32    33   ar
    33    33    34   ar
    34    34    35    1
    35    34    36   ar
    36    36    37   ar
    37     6     1   ar
    38    12     7   ar
    39    37    31   ar
@<TRIPOS>MOLECULE
*****
 37 39 0 0 0
SMALL
GASTEIGER

@<TRIPOS>ATOM
      1 C          63.3509   90.5556   12.4363 C.ar    1  UNL1       -0.0022
      2 C          64.2803   91.5997   12.9803 C.ar    1  UNL1        0.0012
      3 C          64.9746   92.5458   12.0461 C.ar    1  UNL1        0.0712
      4 C          64.7396   92.4478   10.5679 C.ar    1  UNL1        0.0038
      5 C          63.8102   91.4037   10.0239 C.ar    1  UNL1       -0.0002
      6 C          63.1158   90.4576   10.9581 C.ar    1  UNL1        0.0005
      7 C          62.1864   89.4134   10.4140 C.ar    1  UNL1        0.0334
      8 C          62.7325   88.1051    9.9241 C.ar    1  UNL1       -0.0009
      9 C          61.8031   87.0610    9.3801 C.ar    1  UNL1       -0.0164
     10 C          60.3275   87.3251    9.3260 C.ar    1  UNL1       -0.0008
     11 C          59.7814   88.6335    9.8159 C.ar    1  UNL1        0.0366
     12 C          60.7108   89.6776   10.3599 C.ar    1  UNL1        0.1386
     13 O          60.1647   90.9860   10.8498 O.3     1  UNL1       -0.4714
     14 C          58.8957   91.0168   11.6491 C.3     1  UNL1        0.2525
     15 C          62.3493   85.7526    8.8903 C.3     1  UNL1        0.0679
     16 C          62.7651   84.6984    9.8729 C.2     1  UNL1        0.0547
     17 O          63.8670   83.7418    9.5252 O.co2   1  UNL1       -0.5488
     18 O          62.0791   84.6007   11.2033 O.co2   1  UNL1       -0.5488
     19 C          65.9041   93.5900   12.5901 C.3     1  UNL1        0.4186
     20 F          66.8335   94.6341   13.1342 F       1  UNL1       -0.1659
     21 F          66.0834   92.7794   13.8394 F       1  UNL1       -0.1659
     22 F          65.7248   94.4005   11.3408 F       1  UNL1       -0.1659
     23 C          62.6565   89.6095   13.3705 C.3     1  UNL1        0.1234
     24 N          63.4533   88.8154   14.3628 N.am    1  UNL1       -0.2419
     25 C          63.8800   87.4155   14.0336 C.2     1  UNL1        0.4054
     26 O          63.5100   86.8098   12.7122 O.2     1  UNL1       -0.2262
     27 C          63.0538   89.0554   16.9187 C.3     1  UNL1        0.0234
     28 C          63.8233   89.4212   15.6841 C.3     1  UNL1        0.0971
     29 O          64.6768   86.6215   15.0258 O.3     1  UNL1       -0.4295
     30 C          64.0706   85.4166   15.6822 C.3     1  UNL1        0.2367
     31 C          63.7382   84.2043   14.8638 C.ar    1  UNL1        0.0214
     32 C          62.4932   83.4204   15.1561 C.ar    1  UNL1        0.0002
     33 C          62.1608   82.2081   14.3377 C.ar    1  UNL1        0.0112
     34 C          63.0734   81.7797   13.2270 C.ar    1  UNL1        0.0577
     35 CL         62.7409   80.5673   12.4087 Cl      1  UNL1       -0.0822
     36 C          64.3184   82.5635   12.9348 C.ar    1  UNL1        0.0112
     37 C          64.6508   83.7759   13.7532 C.ar    1  UNL1        0.0002
@<TRIPOS>UNITY_ATOM_ATTR
17 1
charge -1
@<TRIPOS>BOND
     1    27    28    1
     2    28    24    1
     3    24    23    1
     4    23     1    1
     5     1     2   ar
     6     2     3   ar
     7     3    19    1
     8    19    20    1
     9    19    21    1
    10    19    22    1
    11     3     4   ar
    12     4     5   ar
    13     5     6   ar
    14     6     7    1
    15     7     8   ar
    16     8     9   ar
    17     9    15    1
    18    15    16    1
    19    16    17   ar
    20    16    18   ar
    21     9    10   ar
    22    10    11   ar
    23    11    12   ar
    24    12    13    1
    25    13    14    1
    26    24    25   am
    27    25    26    2
    28    25    29    1
    29    29    30    1
    30    30    31    1
    31    31    32   ar
    32    32    33   ar
    33    33    34   ar
    34    34    35    1
    35    34    36   ar
    36    36    37   ar
    37     6     1   ar
    38    12     7   ar
    39    37    31   ar
@<TRIPOS>MOLECULE
*****
 37 39 0 0 0
SMALL
GASTEIGER

@<TRIPOS>ATOM
      1 C          62.4130   87.7242   11.3713 C.ar    1  UNL1       -0.0022
      2 C          61.6702   88.5098   10.3316 C.ar    1  UNL1        0.0012
      3 C          60.8579   87.7970    9.2914 C.ar    1  UNL1        0.0712
      4 C          60.7882   86.2987    9.2910 C.ar    1  UNL1        0.0038
      5 C          61.5310   85.5130   10.3307 C.ar    1  UNL1       -0.0002
      6 C          62.3433   86.2258   11.3709 C.ar    1  UNL1        0.0005
      7 C          63.0861   85.4401   12.4107 C.ar    1  UNL1        0.0334
      8 C          63.1394   85.9325   13.8266 C.ar    1  UNL1       -0.0009
      9 C          63.8821   85.1470   14.8664 C.ar    1  UNL1       -0.0164
     10 C          64.5717   83.8690   14.4903 C.ar    1  UNL1       -0.0008
     11 C          64.5184   83.3766   13.0744 C.ar    1  UNL1        0.0366
     12 C          63.7756   84.1622   12.0346 C.ar    1  UNL1        0.1386
     13 O          63.7223   83.6699   10.6187 O.3     1  UNL1       -0.4714
     14 C          63.8550   82.2041   10.3289 C.3     1  UNL1        0.2525
     15 C          63.9354   85.6393   16.2823 C.3     1  UNL1        0.0679
     16 C          62.9092   86.6156   16.7759 C.2     1  UNL1        0.0547
     17 O          61.6070   86.1189   17.3305 O.co2   1  UNL1       -0.5488
     18 O          63.1852   88.0888   16.7150 O.co2   1  UNL1       -0.5488
     19 C          60.1151   88.5827    8.2516 C.3     1  UNL1        0.4186
     20 F          59.3723   89.3683    7.2119 F       1  UNL1       -0.1659
     21 F          60.2195   89.8115    9.1055 F       1  UNL1       -0.1659
     22 F          60.0106   87.3539    7.3978 F       1  UNL1       -0.1659
     23 C          63.2254   88.4369   12.4115 C.3     1  UNL1        0.1234
     24 N          63.4267   89.9205   12.3193 N.am    1  UNL1       -0.2419
     25 C          64.3110   90.6203   13.3085 C.2     1  UNL1        0.4054
     26 O          64.9940   89.8366   14.3897 O.2     1  UNL1       -0.2262
     27 C          63.5579   91.4814   10.2466 C.3     1  UNL1        0.0234
     28 C          62.7437   90.7042   11.2380 C.3     1  UNL1        0.0971
     29 O          64.5123   92.1039   13.2162 O.3     1  UNL1       -0.4295
     30 C          65.8994   92.6691   13.1367 C.3     1  UNL1        0.2367
     31 C          66.3327   93.4244   11.9153 C.ar    1  UNL1        0.0214
     32 C          66.1602   94.9131   11.8538 C.ar    1  UNL1        0.0002
     33 C          66.5935   95.6685   10.6324 C.ar    1  UNL1        0.0112
     34 C          67.1992   94.9351    9.4726 C.ar    1  UNL1        0.0577
     35 CL         67.6324   95.6904    8.2512 Cl      1  UNL1       -0.0822
     36 C          67.3716   93.4463    9.5342 C.ar    1  UNL1        0.0112
     37 C          66.9384   92.6910   10.7555 C.ar    1  UNL1        0.0002
@<TRIPOS>UNITY_ATOM_ATTR
17 1
charge -1
@<TRIPOS>BOND
     1    27    28    1
     2    28    24    1
     3    24    23    1
     4    23     1    1
     5     1     2   ar
     6     2     3   ar
     7     3    19    1
     8    19    20    1
     9    19    21    1
    10    19    22    1
    11     3     4   ar
    12     4     5   ar
    13     5     6   ar
    14     6     7    1
    15     7     8   ar
    16     8     9   ar
    17     9    15    1
    18    15    16    1
    19    16    17   ar
    20    16    18   ar
    21     9    10   ar
    22    10    11   ar
    23    11    12   ar
    24    12    13    1
    25    13    14    1
    26    24    25   am
    27    25    26    2
    28    25    29    1
    29    29    30    1
    30    30    31    1
    31    31    32   ar
    32    32    33   ar
    33    33    34   ar
    34    34    35    1
    35    34    36   ar
    36    36    37   ar
    37     6     1   ar
    38    12     7   ar
    39    37    31   ar
@<TRIPOS>MOLECULE
*****
 37 39 0 0 0
SMALL
GASTEIGER

@<TRIPOS>ATOM
      1 C          61.8321   85.7751   10.4135 C.ar    1  UNL1       -0.0022
      2 C          61.6077   85.7535    8.9306 C.ar    1  UNL1        0.0012
      3 C          62.3873   84.8061    8.0678 C.ar    1  UNL1        0.0712
      4 C          63.3915   83.8803    8.6879 C.ar    1  UNL1        0.0038
      5 C          63.6159   83.9018   10.1708 C.ar    1  UNL1       -0.0002
      6 C          62.8363   84.8492   11.0336 C.ar    1  UNL1        0.0005
      7 C          63.0607   84.8708   12.5166 C.ar    1  UNL1        0.0334
      8 C          63.5804   86.1125   13.1785 C.ar    1  UNL1       -0.0009
      9 C          63.8049   86.1341   14.6614 C.ar    1  UNL1       -0.0164
     10 C          63.5096   84.9140   15.4826 C.ar    1  UNL1       -0.0008
     11 C          62.9898   83.6723   14.8207 C.ar    1  UNL1        0.0366
     12 C          62.7654   83.6507   13.3377 C.ar    1  UNL1        0.1386
     13 O          62.2456   82.4090   12.6758 O.3     1  UNL1       -0.4714
     14 C          62.9813   81.1113   12.8330 C.3     1  UNL1        0.2525
     15 C          64.3246   87.3758   15.3233 C.3     1  UNL1        0.0679
     16 C          63.4020   88.2345   16.1365 C.2     1  UNL1        0.0547
     17 O          62.8623   89.5102   15.5607 O.co2   1  UNL1       -0.5488
     18 O          63.0191   87.8177   17.5256 O.co2   1  UNL1       -0.5488
     19 C          62.1629   84.7845    6.5848 C.3     1  UNL1        0.4186
     20 F          61.9384   84.7630    5.1018 F       1  UNL1       -0.1659
     21 F          60.7101   85.0892    6.8002 F       1  UNL1       -0.1659
     22 F          63.6157   84.4799    6.3693 F       1  UNL1       -0.1659
     23 C          61.0524   86.7225   11.2764 C.3     1  UNL1        0.1234
     24 N          60.9980   88.1809   10.9297 N.am    1  UNL1       -0.2419
     25 C          62.0732   89.1077   11.4145 C.2     1  UNL1        0.4054
     26 O          63.2029   88.5761   12.2459 O.2     1  UNL1       -0.2262
     27 C          60.0902   89.0359    8.6505 C.3     1  UNL1        0.0234
     28 C          59.8683   88.7124   10.0983 C.3     1  UNL1        0.0971
     29 O          62.0188   90.5661   11.0677 O.3     1  UNL1       -0.4295
     30 C          63.2323   91.2507   10.5122 C.3     1  UNL1        0.2367
     31 C          64.3279   91.6993   11.4333 C.ar    1  UNL1        0.0214
     32 C          65.4920   92.4752   10.8922 C.ar    1  UNL1        0.0002
     33 C          66.5876   92.9237   11.8133 C.ar    1  UNL1        0.0112
     34 C          66.5192   92.5964   13.2755 C.ar    1  UNL1        0.0577
     35 CL         67.6148   93.0449   14.1965 Cl      1  UNL1       -0.0822
     36 C          65.3551   91.8205   13.8166 C.ar    1  UNL1        0.0112
     37 C          64.2595   91.3719   12.8955 C.ar    1  UNL1        0.0002
@<TRIPOS>UNITY_ATOM_ATTR
17 1
charge -1
@<TRIPOS>BOND
     1    27    28    1
     2    28    24    1
     3    24    23    1
     4    23     1    1
     5     1     2   ar
     6     2     3   ar
     7     3    19    1
     8    19    20    1
     9    19    21    1
    10    19    22    1
    11     3     4   ar
    12     4     5   ar
    13     5     6   ar
    14     6     7    1
    15     7     8   ar
    16     8     9   ar
    17     9    15    1
    18    15    16    1
    19    16    17   ar
    20    16    18   ar
    21     9    10   ar
    22    10    11   ar
    23    11    12   ar
    24    12    13    1
    25    13    14    1
    26    24    25   am
    27    25    26    2
    28    25    29    1
    29    29    30    1
    30    30    31    1
    31    31    32   ar
    32    32    33   ar
    33    33    34   ar
    34    34    35    1
    35    34    36   ar
    36    36    37   ar
    37     6     1   ar
    38    12     7   ar
    39    37    31   ar
@<TRIPOS>MOLECULE
*****
 37 39 0 0 0
SMALL
GASTEIGER

@<TRIPOS>ATOM
      1 C          63.2194   89.9670   12.2186 C.ar    1  UNL1       -0.0022
      2 C          64.1430   90.9260   12.9094 C.ar    1  UNL1        0.0012
      3 C          64.7814   92.0414   12.1360 C.ar    1  UNL1        0.0712
      4 C          64.4964   92.1977   10.6716 C.ar    1  UNL1        0.0038
      5 C          63.5728   91.2387    9.9808 C.ar    1  UNL1       -0.0002
      6 C          62.9344   90.1233   10.7542 C.ar    1  UNL1        0.0005
      7 C          62.0108   89.1642   10.0634 C.ar    1  UNL1        0.0334
      8 C          62.5452   87.8784    9.5057 C.ar    1  UNL1       -0.0009
      9 C          61.6217   86.9193    8.8148 C.ar    1  UNL1       -0.0164
     10 C          60.1637   87.2461    8.6816 C.ar    1  UNL1       -0.0008
     11 C          59.6294   88.5319    9.2393 C.ar    1  UNL1        0.0366
     12 C          60.5529   89.4910    9.9302 C.ar    1  UNL1        0.1386
     13 O          60.0185   90.7769   10.4879 O.3     1  UNL1       -0.4714
     14 C          59.0597   90.7531   11.6413 C.3     1  UNL1        0.2525
     15 C          62.1561   85.6335    8.2571 C.3     1  UNL1        0.0679
     16 C          61.5705   85.0601    7.0008 C.2     1  UNL1        0.0547
     17 O          60.0817   84.9884    6.8319 O.co2   1  UNL1       -0.5488
     18 O          62.4737   84.5584    5.9134 O.co2   1  UNL1       -0.5488
     19 C          65.7050   93.0005   12.8268 C.3     1  UNL1        0.4186
     20 F          66.6285   93.9595   13.5176 F       1  UNL1       -0.1659
     21 F          65.6212   93.9281   11.6511 F       1  UNL1       -0.1659
     22 F          65.7888   92.0729   14.0026 F       1  UNL1       -0.1659
     23 C          62.5809   88.8516   12.9920 C.3     1  UNL1        0.1234
     24 N          63.3511   87.5947   13.2697 N.am    1  UNL1       -0.2419
     25 C          64.1278   87.4575   14.5457 C.2     1  UNL1        0.4054
     26 O          64.1342   88.5770   15.5439 O.2     1  UNL1       -0.2262
     27 C          62.1582   85.5623   12.1760 C.3     1  UNL1        0.0234
     28 C          63.3446   86.4751   12.2716 C.3     1  UNL1        0.0971
     29 O          64.8979   86.2006   14.8234 O.3     1  UNL1       -0.4295
     30 C          64.2331   85.0528   15.5238 C.3     1  UNL1        0.2367
     31 C          63.8114   83.8419   14.7455 C.ar    1  UNL1        0.0214
     32 C          64.6759   83.3269   13.6331 C.ar    1  UNL1        0.0002
     33 C          64.2542   82.1160   12.8547 C.ar    1  UNL1        0.0112
     34 C          62.9682   81.4200   13.1887 C.ar    1  UNL1        0.0577
     35 CL         62.5465   80.2091   12.4103 Cl      1  UNL1       -0.0822
     36 C          62.1037   81.9350   14.3011 C.ar    1  UNL1        0.0112
     37 C          62.5253   83.1460   15.0795 C.ar    1  UNL1        0.0002
@<TRIPOS>UNITY_ATOM_ATTR
17 1
charge -1
@<TRIPOS>BOND
     1    27    28    1
     2    28    24    1
     3    24    23    1
     4    23     1    1
     5     1     2   ar
     6     2     3   ar
     7     3    19    1
     8    19    20    1
     9    19    21    1
    10    19    22    1
    11     3     4   ar
    12     4     5   ar
    13     5     6   ar
    14     6     7    1
    15     7     8   ar
    16     8     9   ar
    17     9    15    1
    18    15    16    1
    19    16    17   ar
    20    16    18   ar
    21     9    10   ar
    22    10    11   ar
    23    11    12   ar
    24    12    13    1
    25    13    14    1
    26    24    25   am
    27    25    26    2
    28    25    29    1
    29    29    30    1
    30    30    31    1
    31    31    32   ar
    32    32    33   ar
    33    33    34   ar
    34    34    35    1
    35    34    36   ar
    36    36    37   ar
    37     6     1   ar
    38    12     7   ar
    39    37    31   ar
@<TRIPOS>MOLECULE
*****
 37 39 0 0 0
SMALL
GASTEIGER

@<TRIPOS>ATOM
      1 C          63.7416   87.9851   13.3072 C.ar    1  UNL1       -0.0022
      2 C          63.1130   87.0211   12.3451 C.ar    1  UNL1        0.0012
      3 C          62.4353   87.5309   11.1079 C.ar    1  UNL1        0.0712
      4 C          62.3863   89.0046   10.8326 C.ar    1  UNL1        0.0038
      5 C          63.0149   89.9686   11.7946 C.ar    1  UNL1       -0.0002
      6 C          63.6926   89.4588   13.0319 C.ar    1  UNL1        0.0005
      7 C          64.3212   90.4228   13.9940 C.ar    1  UNL1        0.0334
      8 C          65.5512   91.1841   13.5969 C.ar    1  UNL1       -0.0009
      9 C          66.1799   92.1480   14.5589 C.ar    1  UNL1       -0.0164
     10 C          65.5786   92.3507   15.9181 C.ar    1  UNL1       -0.0008
     11 C          64.3486   91.5895   16.3153 C.ar    1  UNL1        0.0366
     12 C          63.7200   90.6255   15.3532 C.ar    1  UNL1        0.1386
     13 O          62.4900   89.8642   15.7503 O.3     1  UNL1       -0.4714
     14 C          62.4130   89.2152   17.1005 C.3     1  UNL1        0.2525
     15 C          67.4098   92.9093   14.1618 C.3     1  UNL1        0.0679
     16 C          68.7464   92.5181   14.7187 C.2     1  UNL1        0.0547
     17 O          69.8807   92.1970   13.7911 O.co2   1  UNL1       -0.5488
     18 O          68.9489   92.4479   16.2034 O.co2   1  UNL1       -0.5488
     19 C          61.8066   86.5669   10.1457 C.3     1  UNL1        0.4186
     20 F          61.1780   85.6029    9.1837 F       1  UNL1       -0.1659
     21 F          60.9354   86.0372   11.2459 F       1  UNL1       -0.1659
     22 F          62.6779   87.0965    9.0456 F       1  UNL1       -0.1659
     23 C          64.4193   87.4754   14.5445 C.3     1  UNL1        0.1234
     24 N          63.9561   86.1987   15.1815 N.am    1  UNL1       -0.2419
     25 C          64.6822   84.9157   14.9041 C.2     1  UNL1        0.4054
     26 O          65.8713   84.9094   13.9899 O.2     1  UNL1       -0.2262
     27 C          62.9545   86.0121   17.5714 C.3     1  UNL1        0.0234
     28 C          62.7670   86.2051   16.0957 C.3     1  UNL1        0.0971
     29 O          64.2190   83.6391   15.5411 O.3     1  UNL1       -0.4295
     30 C          62.9558   82.9814   15.0705 C.3     1  UNL1        0.2367
     31 C          62.9408   82.2277   13.7736 C.ar    1  UNL1        0.0214
     32 C          63.2267   82.9435   12.4869 C.ar    1  UNL1        0.0002
     33 C          63.2116   82.1898   11.1900 C.ar    1  UNL1        0.0112
     34 C          62.9107   80.7204   11.1800 C.ar    1  UNL1        0.0577
     35 CL         62.8957   79.9667    9.8832 Cl      1  UNL1       -0.0822
     36 C          62.6249   80.0046   12.4668 C.ar    1  UNL1        0.0112
     37 C          62.6399   80.7583   13.7636 C.ar    1  UNL1        0.0002
@<TRIPOS>UNITY_ATOM_ATTR
17 1
charge -1
@<TRIPOS>BOND
     1    27    28    1
     2    28    24    1
     3    24    23    1
     4    23     1    1
     5     1     2   ar
     6     2     3   ar
     7     3    19    1
     8    19    20    1
     9    19    21    1
    10    19    22    1
    11     3     4   ar
    12     4     5   ar
    13     5     6   ar
    14     6     7    1
    15     7     8   ar
    16     8     9   ar
    17     9    15    1
    18    15    16    1
    19    16    17   ar
    20    16    18   ar
    21     9    10   ar
    22    10    11   ar
    23    11    12   ar
    24    12    13    1
    25    13    14    1
    26    24    25   am
    27    25    26    2
    28    25    29    1
    29    29    30    1
    30    30    31    1
    31    31    32   ar
    32    32    33   ar
    33    33    34   ar
    34    34    35    1
    35    34    36   ar
    36    36    37   ar
    37     6     1   ar
    38    12     7   ar
    39    37    31   ar
@<TRIPOS>MOLECULE
*****
 37 39 0 0 0
SMALL
GASTEIGER

@<TRIPOS>ATOM
      1 C          62.1393   87.5083   11.1561 C.ar    1  UNL1       -0.0022
      2 C          61.3562   88.2200   10.0930 C.ar    1  UNL1        0.0012
      3 C          60.7074   87.4384    8.9894 C.ar    1  UNL1        0.0712
      4 C          60.8417   85.9449    8.9489 C.ar    1  UNL1        0.0038
      5 C          61.6248   85.2332   10.0119 C.ar    1  UNL1       -0.0002
      6 C          62.2735   86.0148   11.1156 C.ar    1  UNL1        0.0005
      7 C          63.0566   85.3031   12.1787 C.ar    1  UNL1        0.0334
      8 C          63.1840   85.9056   13.5465 C.ar    1  UNL1       -0.0009
      9 C          63.9670   85.1939   14.6096 C.ar    1  UNL1       -0.0164
     10 C          64.6228   83.8796   14.3050 C.ar    1  UNL1       -0.0008
     11 C          64.4955   83.2771   12.9372 C.ar    1  UNL1        0.0366
     12 C          63.7124   83.9889   11.8741 C.ar    1  UNL1        0.1386
     13 O          63.5850   83.3863   10.5063 O.3     1  UNL1       -0.4714
     14 C          63.6363   81.8970   10.3351 C.3     1  UNL1        0.2525
     15 C          64.0943   85.7964   15.9774 C.3     1  UNL1        0.0679
     16 C          62.9573   86.5828   16.5593 C.2     1  UNL1        0.0547
     17 O          61.7231   85.8760   17.0362 O.co2   1  UNL1       -0.5488
     18 O          63.0544   88.0759   16.6644 O.co2   1  UNL1       -0.5488
     19 C          59.9243   88.1501    7.9263 C.3     1  UNL1        0.4186
     20 F          59.1413   88.8619    6.8632 F       1  UNL1       -0.1659
     21 F          60.4637   89.4640    8.4087 F       1  UNL1       -0.1659
     22 F          59.3850   86.8363    7.4439 F       1  UNL1       -0.1659
     23 C          62.7881   88.2899   12.2598 C.3     1  UNL1        0.1234
     24 N          62.9745   89.7717   12.1201 N.am    1  UNL1       -0.2419
     25 C          63.8493   90.5121   13.0879 C.2     1  UNL1        0.4054
     26 O          64.5377   89.7708   14.1953 O.2     1  UNL1       -0.2262
     27 C          63.0957   91.2394    9.9798 C.3     1  UNL1        0.0234
     28 C          62.2861   90.5131   11.0127 C.3     1  UNL1        0.0971
     29 O          64.0357   91.9940   12.9482 O.3     1  UNL1       -0.4295
     30 C          65.3891   92.5521   12.6215 C.3     1  UNL1        0.2367
     31 C          66.4819   92.5189   13.6485 C.ar    1  UNL1        0.0214
     32 C          66.2019   92.9551   15.0560 C.ar    1  UNL1        0.0002
     33 C          67.2948   92.9218   16.0830 C.ar    1  UNL1        0.0112
     34 C          68.6676   92.4523   15.7023 C.ar    1  UNL1        0.0577
     35 CL         69.7604   92.4190   16.7293 Cl      1  UNL1       -0.0822
     36 C          68.9475   92.0161   14.2948 C.ar    1  UNL1        0.0112
     37 C          67.8547   92.0493   13.2678 C.ar    1  UNL1        0.0002
@<TRIPOS>UNITY_ATOM_ATTR
17 1
charge -1
@<TRIPOS>BOND
     1    27    28    1
     2    28    24    1
     3    24    23    1
     4    23     1    1
     5     1     2   ar
     6     2     3   ar
     7     3    19    1
     8    19    20    1
     9    19    21    1
    10    19    22    1
    11     3     4   ar
    12     4     5   ar
    13     5     6   ar
    14     6     7    1
    15     7     8   ar
    16     8     9   ar
    17     9    15    1
    18    15    16    1
    19    16    17   ar
    20    16    18   ar
    21     9    10   ar
    22    10    11   ar
    23    11    12   ar
    24    12    13    1
    25    13    14    1
    26    24    25   am
    27    25    26    2
    28    25    29    1
    29    29    30    1
    30    30    31    1
    31    31    32   ar
    32    32    33   ar
    33    33    34   ar
    34    34    35    1
    35    34    36   ar
    36    36    37   ar
    37     6     1   ar
    38    12     7   ar
    39    37    31   ar
