@<TRIPOS>MOLECULE
*****
 38 42 0 0 0
SMALL
GASTEIGER

@<TRIPOS>ATOM
      1 N          60.6207   87.9838    8.7563 N.ar    1  UNL1       -0.2852
      2 C          59.9962   88.2042    7.4105 C.ar    1  UNL1        0.1023
      3 C          59.2858   89.5250    7.4398 C.ar    1  UNL1        0.1197
      4 N          59.4712   90.1208    8.8038 N.ar    1  UNL1       -0.2207
      5 C          60.2963   89.1683    9.6174 C.ar    1  UNL1        0.2024
      6 C          60.7221   89.3657   11.0421 C.2     1  UNL1        0.2837
      7 O          59.9010   88.7890   12.1572 O.2     1  UNL1       -0.2666
      8 N          61.9690   90.1399   11.3519 N.am    1  UNL1       -0.2735
      9 C          62.3948   90.3373   12.7765 C.3     1  UNL1        0.0955
     10 C          63.6417   91.1115   13.0863 C.3     1  UNL1        0.0410
     11 C          64.4628   91.6882   11.9713 C.3     1  UNL1        0.0724
     12 C          64.0370   91.4909   10.5466 C.3     1  UNL1        0.0410
     13 C          62.7901   90.7167   10.2369 C.3     1  UNL1        0.0955
     14 N          65.7096   92.4624   12.2810 N.pl3   1  UNL1       -0.3339
     15 H          66.0221   92.5407   13.2113 H       1  UNL1        0.1468
     16 C          66.4804   93.1173   11.1733 C.ar    1  UNL1        0.0469
     17 C          66.2314   94.5574   10.8358 C.ar    1  UNL1        0.0144
     18 C          67.0021   95.2123    9.7282 C.ar    1  UNL1        0.0036
     19 C          68.0220   94.4270    8.9579 C.ar    1  UNL1        0.0297
     20 C          68.2711   92.9868    9.2954 C.ar    1  UNL1        0.1414
     21 F          69.2909   92.2016    8.5251 F       1  UNL1       -0.2041
     22 C          67.5003   92.3320   10.4031 C.ar    1  UNL1        0.0439
     23 C          63.0425   84.3984    9.9933 C.ar    1  UNL1       -0.0060
     24 C          63.1003   84.8902    8.5773 C.ar    1  UNL1       -0.0014
     25 C          62.2930   86.0854    8.1650 C.ar    1  UNL1        0.0173
     26 C          61.4280   86.7886    9.1686 C.ar    1  UNL1        0.0655
     27 C          61.3702   86.2968   10.5845 C.ar    1  UNL1        0.0173
     28 C          62.1775   85.1017   10.9968 C.ar    1  UNL1       -0.0014
     29 C          63.8498   83.2033   10.4056 C.3     1  UNL1        0.0992
     30 C          62.2336   79.3050   13.4375 C.3     1  UNL1        0.0186
     31 C          62.8587   80.6602   13.2868 C.3     1  UNL1        0.0702
     32 C          63.0417   81.2542   11.9216 C.3     1  UNL1        0.0882
     33 N          63.6668   82.6094   11.7709 N.3     1  UNL1       -0.2666
     34 C          64.1088   83.3707   12.9854 C.3     1  UNL1        0.0882
     35 C          63.9258   82.7767   14.3505 C.3     1  UNL1        0.0702
     36 C          64.3679   83.5380   15.5651 C.3     1  UNL1        0.0186
     37 N          63.3007   81.4215   14.5012 N.3     1  UNL1       -0.2974
     38 H          62.4764   81.5413   15.0899 H       1  UNL1        0.1232
@<TRIPOS>BOND
     1    31    30    1
     2    31    32    1
     3    32    33    1
     4    33    29    1
     5    29    23    1
     6    23    24   ar
     7    24    25   ar
     8    25    26   ar
     9    26     1    1
    10     1     2   ar
    11     2     3   ar
    12     3     4   ar
    13     4     5   ar
    14     5     6    1
    15     6     7    2
    16     6     8   am
    17     8     9    1
    18     9    10    1
    19    10    11    1
    20    11    14    1
    21    14    16    1
    22    16    17   ar
    23    17    18   ar
    24    18    19   ar
    25    19    20   ar
    26    20    21    1
    27    20    22   ar
    28    11    12    1
    29    12    13    1
    30    26    27   ar
    31    27    28   ar
    32    33    34    1
    33    34    35    1
    34    35    36    1
    35    35    37    1
    36    37    31    1
    37    28    23   ar
    38     5     1   ar
    39    13     8    1
    40    22    16   ar
    41    14    15    1
    42    37    38    1
@<TRIPOS>MOLECULE
*****
 38 42 0 0 0
SMALL
GASTEIGER

@<TRIPOS>ATOM
      1 N          60.5987   87.9374    8.6945 N.ar    1  UNL1       -0.2852
      2 C          59.9864   88.1444    7.3409 C.ar    1  UNL1        0.1023
      3 C          59.2611   89.4573    7.3560 C.ar    1  UNL1        0.1197
      4 N          59.4252   90.0618    8.7190 N.ar    1  UNL1       -0.2207
      5 C          60.2519   89.1224    9.5462 C.ar    1  UNL1        0.2024
      6 C          60.6601   89.3314   10.9744 C.2     1  UNL1        0.2837
      7 O          59.8199   88.7721   12.0841 O.2     1  UNL1       -0.2666
      8 N          61.9083   90.0998   11.2930 N.am    1  UNL1       -0.2735
      9 C          62.3164   90.3088   12.7211 C.3     1  UNL1        0.0955
     10 C          63.5647   91.0771   13.0397 C.3     1  UNL1        0.0410
     11 C          64.4048   91.6365   11.9301 C.3     1  UNL1        0.0724
     12 C          63.9967   91.4275   10.5018 C.3     1  UNL1        0.0410
     13 C          62.7485   90.6592   10.1833 C.3     1  UNL1        0.0955
     14 N          65.6531   92.4048   12.2486 N.pl3   1  UNL1       -0.3339
     15 H          65.9679   92.4686   13.1792 H       1  UNL1        0.1468
     16 C          66.4217   93.0760   11.1492 C.ar    1  UNL1        0.0469
     17 C          66.1190   94.4987   10.7828 C.ar    1  UNL1        0.0144
     18 C          66.8876   95.1699    9.6835 C.ar    1  UNL1        0.0036
     19 C          67.9591   94.4184    8.9504 C.ar    1  UNL1        0.0297
     20 C          68.2618   92.9957    9.3168 C.ar    1  UNL1        0.1414
     21 F          69.3332   92.2442    8.5838 F       1  UNL1       -0.2041
     22 C          67.4932   92.3245   10.4162 C.ar    1  UNL1        0.0439
     23 C          63.0463   84.3851    9.9753 C.ar    1  UNL1       -0.0060
     24 C          63.1084   84.8662    8.5558 C.ar    1  UNL1       -0.0014
     25 C          62.2925   86.0503    8.1289 C.ar    1  UNL1        0.0173
     26 C          61.4146   86.7533    9.1214 C.ar    1  UNL1        0.0655
     27 C          61.3525   86.2722   10.5408 C.ar    1  UNL1        0.0173
     28 C          62.1684   85.0881   10.9677 C.ar    1  UNL1       -0.0014
     29 C          63.8622   83.2010   10.4022 C.3     1  UNL1        0.0992
     30 C          64.4520   83.5459   15.5532 C.3     1  UNL1        0.0186
     31 C          63.9742   82.7914   14.3481 C.3     1  UNL1        0.0702
     32 C          64.1571   83.3734   12.9778 C.3     1  UNL1        0.0882
     33 N          63.6793   82.6189   11.7726 N.3     1  UNL1       -0.2666
     34 C          63.0185   81.2825   11.9377 C.3     1  UNL1        0.0882
     35 C          62.8356   80.7005   13.3080 C.3     1  UNL1        0.0702
     36 C          62.1748   79.3640   13.4732 C.3     1  UNL1        0.0186
     37 N          63.3135   81.4550   14.5132 N.3     1  UNL1       -0.2974
     38 H          63.9833   80.8524   14.9913 H       1  UNL1        0.1232
@<TRIPOS>BOND
     1    31    30    1
     2    31    32    1
     3    32    33    1
     4    33    29    1
     5    29    23    1
     6    23    24   ar
     7    24    25   ar
     8    25    26   ar
     9    26     1    1
    10     1     2   ar
    11     2     3   ar
    12     3     4   ar
    13     4     5   ar
    14     5     6    1
    15     6     7    2
    16     6     8   am
    17     8     9    1
    18     9    10    1
    19    10    11    1
    20    11    14    1
    21    14    16    1
    22    16    17   ar
    23    17    18   ar
    24    18    19   ar
    25    19    20   ar
    26    20    21    1
    27    20    22   ar
    28    11    12    1
    29    12    13    1
    30    26    27   ar
    31    27    28   ar
    32    33    34    1
    33    34    35    1
    34    35    36    1
    35    35    37    1
    36    37    31    1
    37    28    23   ar
    38     5     1   ar
    39    13     8    1
    40    22    16   ar
    41    14    15    1
    42    37    38    1
@<TRIPOS>MOLECULE
*****
 38 42 0 0 0
SMALL
GASTEIGER

@<TRIPOS>ATOM
      1 N          65.4068   91.7192   13.4236 N.ar    1  UNL1       -0.2852
      2 C          66.7153   92.3094   12.9882 C.ar    1  UNL1        0.1023
      3 C          67.5427   92.5578   14.2144 C.ar    1  UNL1        0.1197
      4 N          66.7456   92.1212   15.4077 N.ar    1  UNL1       -0.2207
      5 C          65.4256   91.6030   14.9189 C.ar    1  UNL1        0.2024
      6 C          64.3186   91.0632   15.7752 C.2     1  UNL1        0.2837
      7 O          63.4623   92.0012   16.5734 O.2     1  UNL1       -0.2666
      8 N          64.0678   89.5854   15.8336 N.am    1  UNL1       -0.2735
      9 C          62.9609   89.0457   16.6898 C.3     1  UNL1        0.0955
     10 C          62.7102   87.5679   16.7481 C.3     1  UNL1        0.0410
     11 C          63.5665   86.6299   15.9500 C.3     1  UNL1        0.0724
     12 C          64.6735   87.1696   15.0936 C.3     1  UNL1        0.0410
     13 C          64.9242   88.6474   15.0354 C.3     1  UNL1        0.0955
     14 N          63.3158   85.1522   16.0082 N.pl3   1  UNL1       -0.3339
     15 H          63.3053   84.6885   16.8767 H       1  UNL1        0.1468
     16 C          63.0812   84.3808   14.7433 C.ar    1  UNL1        0.0469
     17 C          63.3559   85.0189   13.4139 C.ar    1  UNL1        0.0144
     18 C          63.1213   84.2476   12.1490 C.ar    1  UNL1        0.0036
     19 C          62.6120   82.8382   12.2135 C.ar    1  UNL1        0.0297
     20 C          62.3373   82.2001   13.5429 C.ar    1  UNL1        0.1414
     21 F          61.8280   80.7907   13.6074 F       1  UNL1       -0.2041
     22 C          62.5719   82.9714   14.8078 C.ar    1  UNL1        0.0439
     23 C          62.0199   90.5100   10.7187 C.ar    1  UNL1       -0.0060
     24 C          62.0101   90.1006   12.1618 C.ar    1  UNL1       -0.0014
     25 C          63.1391   90.5037   13.0634 C.ar    1  UNL1        0.0173
     26 C          64.2778   91.3162   12.5219 C.ar    1  UNL1        0.0655
     27 C          64.2876   91.7256   11.0790 C.ar    1  UNL1        0.0173
     28 C          63.1586   91.3225   10.1773 C.ar    1  UNL1       -0.0014
     29 C          60.8909   90.1070    9.8171 C.3     1  UNL1        0.0992
     30 C          58.2073   86.2970    7.5188 C.3     1  UNL1        0.0186
     31 C          59.4785   86.8018    8.1345 C.3     1  UNL1        0.0702
     32 C          59.5491   88.2019    8.6679 C.3     1  UNL1        0.0882
     33 N          60.8203   88.7067    9.2836 N.3     1  UNL1       -0.2666
     34 C          62.0210   87.8114    9.3659 C.3     1  UNL1        0.0882
     35 C          61.9504   86.4113    8.8325 C.3     1  UNL1        0.0702
     36 C          63.1511   85.5159    8.9148 C.3     1  UNL1        0.0186
     37 N          60.6791   85.9065    8.2168 N.3     1  UNL1       -0.2974
     38 H          60.3980   85.0855    8.7529 H       1  UNL1        0.1232
@<TRIPOS>BOND
     1    31    30    1
     2    31    32    1
     3    32    33    1
     4    33    29    1
     5    29    23    1
     6    23    24   ar
     7    24    25   ar
     8    25    26   ar
     9    26     1    1
    10     1     2   ar
    11     2     3   ar
    12     3     4   ar
    13     4     5   ar
    14     5     6    1
    15     6     7    2
    16     6     8   am
    17     8     9    1
    18     9    10    1
    19    10    11    1
    20    11    14    1
    21    14    16    1
    22    16    17   ar
    23    17    18   ar
    24    18    19   ar
    25    19    20   ar
    26    20    21    1
    27    20    22   ar
    28    11    12    1
    29    12    13    1
    30    26    27   ar
    31    27    28   ar
    32    33    34    1
    33    34    35    1
    34    35    36    1
    35    35    37    1
    36    37    31    1
    37    28    23   ar
    38     5     1   ar
    39    13     8    1
    40    22    16   ar
    41    14    15    1
    42    37    38    1
@<TRIPOS>MOLECULE
*****
 38 42 0 0 0
SMALL
GASTEIGER

@<TRIPOS>ATOM
      1 N          60.6695   88.0819    8.8682 N.ar    1  UNL1       -0.2852
      2 C          59.9782   88.3115    7.5570 C.ar    1  UNL1        0.1023
      3 C          59.3080   89.6522    7.6148 C.ar    1  UNL1        0.1197
      4 N          59.5851   90.2512    8.9617 N.ar    1  UNL1       -0.2207
      5 C          60.4266   89.2807    9.7364 C.ar    1  UNL1        0.2024
      6 C          60.9357   89.4750   11.1339 C.2     1  UNL1        0.2837
      7 O          60.2144   88.8462   12.2891 O.2     1  UNL1       -0.2666
      8 N          62.1661   90.2980   11.3764 N.am    1  UNL1       -0.2735
      9 C          62.6752   90.4922   12.7738 C.3     1  UNL1        0.0955
     10 C          63.9057   91.3153   13.0162 C.3     1  UNL1        0.0410
     11 C          64.6270   91.9440   11.8610 C.3     1  UNL1        0.0724
     12 C          64.1179   91.7498   10.4634 C.3     1  UNL1        0.0410
     13 C          62.8875   90.9268   10.2211 C.3     1  UNL1        0.0955
     14 N          65.8574   92.7670   12.1034 N.pl3   1  UNL1       -0.3339
     15 H          66.1827   93.3827   11.4074 H       1  UNL1        0.1468
     16 C          66.5921   92.6520   13.4060 C.ar    1  UNL1        0.0469
     17 C          65.8587   92.8442   14.7003 C.ar    1  UNL1        0.0144
     18 C          66.5933   92.7292   16.0029 C.ar    1  UNL1        0.0036
     19 C          68.0616   92.4219   16.0114 C.ar    1  UNL1        0.0297
     20 C          68.7950   92.2297   14.7171 C.ar    1  UNL1        0.1414
     21 F          70.2631   91.9224   14.7255 F       1  UNL1       -0.2041
     22 C          68.0603   92.3447   13.4144 C.ar    1  UNL1        0.0439
     23 C          63.0537   84.4367    9.9988 C.ar    1  UNL1       -0.0060
     24 C          63.1869   85.0235    8.6247 C.ar    1  UNL1       -0.0014
     25 C          62.3922   86.2386    8.2479 C.ar    1  UNL1        0.0173
     26 C          61.4642   86.8668    9.2451 C.ar    1  UNL1        0.0655
     27 C          61.3311   86.2800   10.6190 C.ar    1  UNL1        0.0173
     28 C          62.1258   85.0649   10.9959 C.ar    1  UNL1       -0.0014
     29 C          63.8484   83.2216   10.3757 C.3     1  UNL1        0.0992
     30 C          64.5068   83.5241   15.5211 C.3     1  UNL1        0.0186
     31 C          64.0273   82.7725   14.3148 C.3     1  UNL1        0.0702
     32 C          64.1776   83.3728   12.9484 C.3     1  UNL1        0.0882
     33 N          63.6981   82.6212   11.7421 N.3     1  UNL1       -0.2666
     34 C          63.0683   81.2693   11.9021 C.3     1  UNL1        0.0882
     35 C          62.9180   80.6690   13.2685 C.3     1  UNL1        0.0702
     36 C          62.2881   79.3170   13.4286 C.3     1  UNL1        0.0186
     37 N          63.3975   81.4206   14.4748 N.3     1  UNL1       -0.2974
     38 H          64.0869   80.8274   14.9365 H       1  UNL1        0.1232
@<TRIPOS>BOND
     1    31    30    1
     2    31    32    1
     3    32    33    1
     4    33    29    1
     5    29    23    1
     6    23    24   ar
     7    24    25   ar
     8    25    26   ar
     9    26     1    1
    10     1     2   ar
    11     2     3   ar
    12     3     4   ar
    13     4     5   ar
    14     5     6    1
    15     6     7    2
    16     6     8   am
    17     8     9    1
    18     9    10    1
    19    10    11    1
    20    11    14    1
    21    14    16    1
    22    16    17   ar
    23    17    18   ar
    24    18    19   ar
    25    19    20   ar
    26    20    21    1
    27    20    22   ar
    28    11    12    1
    29    12    13    1
    30    26    27   ar
    31    27    28   ar
    32    33    34    1
    33    34    35    1
    34    35    36    1
    35    35    37    1
    36    37    31    1
    37    28    23   ar
    38     5     1   ar
    39    13     8    1
    40    22    16   ar
    41    14    15    1
    42    37    38    1
@<TRIPOS>MOLECULE
*****
 38 42 0 0 0
SMALL
GASTEIGER

@<TRIPOS>ATOM
      1 N          60.5876   89.5462   12.2420 N.ar    1  UNL1       -0.2852
      2 C          59.4548   89.7122   13.2111 C.ar    1  UNL1        0.1023
      3 C          58.2792   88.9424   12.6862 C.ar    1  UNL1        0.1197
      4 N          58.6855   88.3007   11.3927 N.ar    1  UNL1       -0.2207
      5 C          60.1122   88.6738   11.1182 C.ar    1  UNL1        0.2024
      6 C          60.9214   88.2491    9.9287 C.2     1  UNL1        0.2837
      7 O          60.9529   89.1065    8.6982 O.2     1  UNL1       -0.2666
      8 N          61.6991   86.9671    9.9695 N.am    1  UNL1       -0.2735
      9 C          62.5082   86.5425    8.7801 C.3     1  UNL1        0.0955
     10 C          63.2859   85.2604    8.8209 C.3     1  UNL1        0.0410
     11 C          63.2543   84.4031   10.0514 C.3     1  UNL1        0.0724
     12 C          62.4452   84.8277   11.2409 C.3     1  UNL1        0.0410
     13 C          61.6675   86.1097   11.2000 C.3     1  UNL1        0.0955
     14 N          64.0320   83.1211   10.0923 N.pl3   1  UNL1       -0.3339
     15 H          64.8562   83.0282    9.5619 H       1  UNL1        0.1468
     16 C          63.5539   81.9806   10.9413 C.ar    1  UNL1        0.0469
     17 C          63.4128   82.1572   12.4242 C.ar    1  UNL1        0.0144
     18 C          62.9348   81.0168   13.2731 C.ar    1  UNL1        0.0036
     19 C          62.5976   79.6997   12.6393 C.ar    1  UNL1        0.0297
     20 C          62.7387   79.5232   11.1564 C.ar    1  UNL1        0.1414
     21 F          62.4016   78.2061   10.5225 F       1  UNL1       -0.2041
     22 C          63.2168   80.6636   10.3074 C.ar    1  UNL1        0.0439
     23 C          64.6919   91.3487   12.6370 C.ar    1  UNL1       -0.0060
     24 C          63.9274   91.4980   11.3550 C.ar    1  UNL1       -0.0014
     25 C          62.5593   90.8971   11.2234 C.ar    1  UNL1        0.0173
     26 C          61.9557   90.1470   12.3737 C.ar    1  UNL1        0.0655
     27 C          62.7202   89.9978   13.6555 C.ar    1  UNL1        0.0173
     28 C          64.0883   90.5986   13.7872 C.ar    1  UNL1       -0.0014
     29 C          66.0600   91.9495   12.7686 C.3     1  UNL1        0.0992
     30 C          68.8659   92.4973    8.4296 C.3     1  UNL1        0.0186
     31 C          68.0081   93.0938    9.5059 C.3     1  UNL1        0.0702
     32 C          67.4629   92.2235   10.5991 C.3     1  UNL1        0.0882
     33 N          66.6052   92.8200   11.6754 N.3     1  UNL1       -0.2666
     34 C          66.2926   94.2870   11.6584 C.3     1  UNL1        0.0882
     35 C          66.8378   95.1574   10.5652 C.3     1  UNL1        0.0702
     36 C          66.5253   96.6244   10.5483 C.3     1  UNL1        0.0186
     37 N          67.6956   94.5608    9.4890 N.3     1  UNL1       -0.2974
     38 H          68.5888   95.0525    9.5179 H       1  UNL1        0.1232
@<TRIPOS>BOND
     1    31    30    1
     2    31    32    1
     3    32    33    1
     4    33    29    1
     5    29    23    1
     6    23    24   ar
     7    24    25   ar
     8    25    26   ar
     9    26     1    1
    10     1     2   ar
    11     2     3   ar
    12     3     4   ar
    13     4     5   ar
    14     5     6    1
    15     6     7    2
    16     6     8   am
    17     8     9    1
    18     9    10    1
    19    10    11    1
    20    11    14    1
    21    14    16    1
    22    16    17   ar
    23    17    18   ar
    24    18    19   ar
    25    19    20   ar
    26    20    21    1
    27    20    22   ar
    28    11    12    1
    29    12    13    1
    30    26    27   ar
    31    27    28   ar
    32    33    34    1
    33    34    35    1
    34    35    36    1
    35    35    37    1
    36    37    31    1
    37    28    23   ar
    38     5     1   ar
    39    13     8    1
    40    22    16   ar
    41    14    15    1
    42    37    38    1
@<TRIPOS>MOLECULE
*****
 38 42 0 0 0
SMALL
GASTEIGER

@<TRIPOS>ATOM
      1 N          60.4044   87.5480    8.9774 N.ar    1  UNL1       -0.2852
      2 C          59.0895   87.8821    8.3374 C.ar    1  UNL1        0.1023
      3 C          58.7620   86.7956    7.3565 C.ar    1  UNL1        0.1197
      4 N          59.8745   85.7899    7.3903 N.ar    1  UNL1       -0.2207
      5 C          60.8894   86.2549    8.3920 C.ar    1  UNL1        0.2024
      6 C          62.1655   85.5505    8.7462 C.2     1  UNL1        0.2837
      7 O          63.1043   85.1091    7.6626 O.2     1  UNL1       -0.2666
      8 N          62.5030   85.2875   10.1839 N.am    1  UNL1       -0.2735
      9 C          63.7790   84.5831   10.5380 C.3     1  UNL1        0.0955
     10 C          64.1165   84.3201   11.9758 C.3     1  UNL1        0.0410
     11 C          63.1778   84.7615   13.0593 C.3     1  UNL1        0.0724
     12 C          61.9017   85.4659   12.7052 C.3     1  UNL1        0.0410
     13 C          61.5643   85.7289   11.2675 C.3     1  UNL1        0.0955
     14 N          63.5152   84.4985   14.4970 N.pl3   1  UNL1       -0.3339
     15 H          63.8601   83.6173   14.7684 H       1  UNL1        0.1468
     16 C          63.3270   85.5782   15.5211 C.ar    1  UNL1        0.0469
     17 C          62.6620   85.2641   16.8285 C.ar    1  UNL1        0.0144
     18 C          62.4739   86.3437   17.8526 C.ar    1  UNL1        0.0036
     19 C          62.9507   87.7375   17.5695 C.ar    1  UNL1        0.0297
     20 C          63.6157   88.0515   16.2622 C.ar    1  UNL1        0.1414
     21 F          64.0925   89.4453   15.9790 F       1  UNL1       -0.2041
     22 C          63.8039   86.9719   15.2380 C.ar    1  UNL1        0.0439
     23 C          62.5217   89.9951   12.1044 C.ar    1  UNL1       -0.0060
     24 C          61.0897   89.5969   12.3064 C.ar    1  UNL1       -0.0014
     25 C          60.3839   88.7812   11.2641 C.ar    1  UNL1        0.0173
     26 C          61.1102   88.3637   10.0197 C.ar    1  UNL1        0.0655
     27 C          62.5421   88.7619    9.8178 C.ar    1  UNL1        0.0173
     28 C          63.2479   89.5776   10.8601 C.ar    1  UNL1       -0.0014
     29 C          63.2275   90.8108   13.1468 C.3     1  UNL1        0.0992
     30 C          66.2910   93.4680    9.8980 C.3     1  UNL1        0.0186
     31 C          66.0832   92.7718   11.2103 C.3     1  UNL1        0.0702
     32 C          64.7593   92.1394   11.5224 C.3     1  UNL1        0.0882
     33 N          64.5515   91.4433   12.8347 N.3     1  UNL1       -0.2666
     34 C          65.6675   91.3795   13.8349 C.3     1  UNL1        0.0882
     35 C          66.9913   92.0118   13.5228 C.3     1  UNL1        0.0702
     36 C          68.1074   91.9481   14.5230 C.3     1  UNL1        0.0186
     37 N          67.1992   92.7080   12.2105 N.3     1  UNL1       -0.2974
     38 H          67.9808   92.2415   11.7502 H       1  UNL1        0.1232
@<TRIPOS>BOND
     1    31    30    1
     2    31    32    1
     3    32    33    1
     4    33    29    1
     5    29    23    1
     6    23    24   ar
     7    24    25   ar
     8    25    26   ar
     9    26     1    1
    10     1     2   ar
    11     2     3   ar
    12     3     4   ar
    13     4     5   ar
    14     5     6    1
    15     6     7    2
    16     6     8   am
    17     8     9    1
    18     9    10    1
    19    10    11    1
    20    11    14    1
    21    14    16    1
    22    16    17   ar
    23    17    18   ar
    24    18    19   ar
    25    19    20   ar
    26    20    21    1
    27    20    22   ar
    28    11    12    1
    29    12    13    1
    30    26    27   ar
    31    27    28   ar
    32    33    34    1
    33    34    35    1
    34    35    36    1
    35    35    37    1
    36    37    31    1
    37    28    23   ar
    38     5     1   ar
    39    13     8    1
    40    22    16   ar
    41    14    15    1
    42    37    38    1
