@<TRIPOS>MOLECULE
*****
 34 38 0 0 0
SMALL
GASTEIGER

@<TRIPOS>ATOM
      1 C          62.7611   86.7664   11.9080 C.2     1  UNL1        0.2506
      2 O          63.5520   87.3925   13.0183 O.2     1  UNL1       -0.2699
      3 N          61.7901   87.5943   11.1196 N.am    1  UNL1       -0.2724
      4 C          60.9993   86.9683   10.0093 C.3     1  UNL1        0.1231
      5 C          60.0283   87.7962    9.2209 C.3     1  UNL1        0.1351
      6 C          59.2374   87.1701    8.1106 C.3     1  UNL1        0.0339
      7 O          59.8481   89.2501    9.5426 O.3     1  UNL1       -0.3527
      8 C          60.6389   89.8762   10.6529 C.3     1  UNL1        0.1621
      9 C          61.6100   89.0483   11.4414 C.3     1  UNL1        0.1096
     10 C          63.4819   80.9506   10.6210 C.3     1  UNL1        0.0307
     11 C          63.3017   82.4046   10.9427 C.ar    1  UNL1       -0.0243
     12 C          63.1551   83.4053    9.8350 C.ar    1  UNL1       -0.0043
     13 C          62.9749   84.8592   10.1568 C.ar    1  UNL1        0.0057
     14 C          62.9413   85.3125   11.5863 C.ar    1  UNL1        0.0726
     15 C          63.0880   84.3118   12.6940 C.ar    1  UNL1        0.1029
     16 C          63.2682   82.8578   12.3722 C.ar    1  UNL1       -0.0062
     17 C          63.4148   81.8571   13.4800 C.3     1  UNL1        0.0323
     18 N          63.0544   84.7650   14.1235 N.ar    1  UNL1       -0.1480
     19 N          64.2208   85.2829   14.9118 N.ar    1  UNL1       -0.1447
     20 C          63.7359   85.6178   16.2912 C.ar    1  UNL1        0.1446
     21 C          62.2699   85.3070   16.3554 C.ar    1  UNL1        0.1446
     22 N          61.8487   84.7799   15.0157 N.ar    1  UNL1       -0.1447
     23 C          62.4008   89.6743   12.5516 C.3     1  UNL1        0.0488
     24 C          63.4986   90.6461   12.2349 C.ar    1  UNL1       -0.0189
     25 C          63.5890   91.2561   10.8675 C.ar    1  UNL1       -0.0041
     26 C          64.6868   92.2279   10.5508 C.ar    1  UNL1        0.0013
     27 C          65.6944   92.5897   11.6015 C.ar    1  UNL1        0.0209
     28 C          65.6040   91.9798   12.9688 C.ar    1  UNL1        0.1026
     29 C          64.5062   91.0080   13.2855 C.ar    1  UNL1        0.0167
     30 N          66.6116   92.3416   14.0196 N.ar    1  UNL1       -0.1478
     31 N          66.3054   92.7773   15.4218 N.ar    1  UNL1       -0.1447
     32 C          67.6068   93.0362   16.1214 C.ar    1  UNL1        0.1446
     33 C          68.7173   92.7604   15.1514 C.ar    1  UNL1        0.1446
     34 N          68.1022   92.3311   13.8525 N.ar    1  UNL1       -0.1447
@<TRIPOS>BOND
     1    10    11    1
     2    11    12   ar
     3    12    13   ar
     4    13    14   ar
     5    14     1    1
     6     1     2    2
     7     1     3   am
     8     3     4    1
     9     4     5    1
    10     5     6    1
    11     5     7    1
    12     7     8    1
    13     8     9    1
    14     9    23    1
    15    23    24    1
    16    24    25   ar
    17    25    26   ar
    18    26    27   ar
    19    27    28   ar
    20    28    30    1
    21    30    31   ar
    22    31    32   ar
    23    32    33   ar
    24    33    34   ar
    25    28    29   ar
    26    14    15   ar
    27    15    18    1
    28    18    19   ar
    29    19    20   ar
    30    20    21   ar
    31    21    22   ar
    32    15    16   ar
    33    16    17    1
    34    16    11   ar
    35     9     3    1
    36    29    24   ar
    37    22    18   ar
    38    34    30   ar
@<TRIPOS>MOLECULE
*****
 34 38 0 0 0
SMALL
GASTEIGER

@<TRIPOS>ATOM
      1 C          63.1067   87.1664   12.5931 C.2     1  UNL1        0.2506
      2 O          63.7776   87.5748   13.8710 O.2     1  UNL1       -0.2699
      3 N          62.4286   88.1966   11.7395 N.am    1  UNL1       -0.2724
      4 C          61.7576   87.7881   10.4616 C.3     1  UNL1        0.1231
      5 C          61.0795   88.8184    9.6080 C.3     1  UNL1        0.1351
      6 C          60.4085   88.4099    8.3301 C.3     1  UNL1        0.0339
      7 O          61.0722   90.2571   10.0323 O.3     1  UNL1       -0.3527
      8 C          61.7431   90.6656   11.3101 C.3     1  UNL1        0.1621
      9 C          62.4213   89.6353   12.1638 C.3     1  UNL1        0.1096
     10 C          63.1357   81.4114   10.8961 C.3     1  UNL1        0.0307
     11 C          63.1284   82.8502   11.3203 C.ar    1  UNL1       -0.0243
     12 C          63.1578   83.9370   10.2870 C.ar    1  UNL1       -0.0043
     13 C          63.1506   85.3757   10.7112 C.ar    1  UNL1        0.0057
     14 C          63.1140   85.7276   12.1689 C.ar    1  UNL1        0.0726
     15 C          63.0845   84.6408   13.2022 C.ar    1  UNL1        0.1029
     16 C          63.0918   83.2021   12.7780 C.ar    1  UNL1       -0.0062
     17 C          63.0624   82.1152   13.8115 C.3     1  UNL1        0.0323
     18 N          63.0479   84.9927   14.6600 N.ar    1  UNL1       -0.1480
     19 N          61.8209   85.0597   15.5202 N.ar    1  UNL1       -0.1447
     20 C          62.2464   85.4478   16.9052 C.ar    1  UNL1        0.1446
     21 C          63.7364   85.6206   16.9010 C.ar    1  UNL1        0.1446
     22 N          64.2317   85.3393   15.5134 N.ar    1  UNL1       -0.1447
     23 C          63.0922   90.0438   13.4417 C.3     1  UNL1        0.0488
     24 C          64.4016   90.7745   13.4010 C.ar    1  UNL1       -0.0189
     25 C          65.3976   90.5908   14.5074 C.ar    1  UNL1       -0.0041
     26 C          66.7070   91.3215   14.4668 C.ar    1  UNL1        0.0013
     27 C          67.0204   92.2357   13.3197 C.ar    1  UNL1        0.0209
     28 C          66.0244   92.4193   12.2133 C.ar    1  UNL1        0.1026
     29 C          64.7150   91.6887   12.2539 C.ar    1  UNL1        0.0167
     30 N          66.3378   93.3336   11.0661 N.ar    1  UNL1       -0.1478
     31 N          65.5783   94.5721   10.6927 N.ar    1  UNL1       -0.1447
     32 C          66.2368   95.1738    9.4868 C.ar    1  UNL1        0.1446
     33 C          67.4034   94.3072    9.1148 C.ar    1  UNL1        0.1446
     34 N          67.4657   93.1699   10.0909 N.ar    1  UNL1       -0.1447
@<TRIPOS>BOND
     1    10    11    1
     2    11    12   ar
     3    12    13   ar
     4    13    14   ar
     5    14     1    1
     6     1     2    2
     7     1     3   am
     8     3     4    1
     9     4     5    1
    10     5     6    1
    11     5     7    1
    12     7     8    1
    13     8     9    1
    14     9    23    1
    15    23    24    1
    16    24    25   ar
    17    25    26   ar
    18    26    27   ar
    19    27    28   ar
    20    28    30    1
    21    30    31   ar
    22    31    32   ar
    23    32    33   ar
    24    33    34   ar
    25    28    29   ar
    26    14    15   ar
    27    15    18    1
    28    18    19   ar
    29    19    20   ar
    30    20    21   ar
    31    21    22   ar
    32    15    16   ar
    33    16    17    1
    34    16    11   ar
    35     9     3    1
    36    29    24   ar
    37    22    18   ar
    38    34    30   ar
@<TRIPOS>MOLECULE
*****
 34 38 0 0 0
SMALL
GASTEIGER

@<TRIPOS>ATOM
      1 C          62.7800   88.5032   11.5936 C.2     1  UNL1        0.2506
      2 O          62.7501   90.0022   11.5466 O.2     1  UNL1       -0.2699
      3 N          63.3887   87.8018   12.7715 N.am    1  UNL1       -0.2724
      4 C          63.4186   86.3028   12.8185 C.3     1  UNL1        0.1231
      5 C          64.0273   85.6014   13.9964 C.3     1  UNL1        0.1351
      6 C          64.0572   84.1024   14.0434 C.3     1  UNL1        0.0339
      7 O          64.6062   86.3989   15.1273 O.3     1  UNL1       -0.3527
      8 C          64.5764   87.8979   15.0803 C.3     1  UNL1        0.1621
      9 C          63.9676   88.5993   13.9023 C.3     1  UNL1        0.1096
     10 C          60.4645   85.3131    7.0701 C.3     1  UNL1        0.0307
     11 C          61.0434   86.1107    8.2010 C.ar    1  UNL1       -0.0243
     12 C          62.4775   85.9192    8.5967 C.ar    1  UNL1       -0.0043
     13 C          63.0564   86.7167    9.7276 C.ar    1  UNL1        0.0057
     14 C          62.2011   87.7057   10.4627 C.ar    1  UNL1        0.0726
     15 C          60.7670   87.8972   10.0670 C.ar    1  UNL1        0.1029
     16 C          60.1882   87.0996    8.9361 C.ar    1  UNL1       -0.0062
     17 C          58.7540   87.2911    8.5404 C.3     1  UNL1        0.0323
     18 N          59.9117   88.8862   10.8021 N.ar    1  UNL1       -0.1480
     19 N          59.7112   90.3257   10.4312 N.ar    1  UNL1       -0.1447
     20 C          58.7824   90.9386   11.4370 C.ar    1  UNL1        0.1446
     21 C          58.4089   89.8777   12.4296 C.ar    1  UNL1        0.1446
     22 N          59.1068   88.6093   12.0372 N.ar    1  UNL1       -0.1447
     23 C          63.9377   90.0983   13.8553 C.3     1  UNL1        0.0488
     24 C          65.2210   90.8724   13.7927 C.ar    1  UNL1       -0.0189
     25 C          66.1565   90.8698   14.9652 C.ar    1  UNL1       -0.0041
     26 C          67.4398   91.6440   14.9025 C.ar    1  UNL1        0.0013
     27 C          67.7876   92.4207   13.6673 C.ar    1  UNL1        0.0209
     28 C          66.8521   92.4232   12.4948 C.ar    1  UNL1        0.1026
     29 C          65.5688   91.6491   12.5575 C.ar    1  UNL1        0.0167
     30 N          67.1999   93.2000   11.2595 N.ar    1  UNL1       -0.1478
     31 N          66.8635   94.6383   10.9985 N.ar    1  UNL1       -0.1447
     32 C          67.4008   95.0019    9.6461 C.ar    1  UNL1        0.1446
     33 C          68.0693   93.7883    9.0712 C.ar    1  UNL1        0.1446
     34 N          67.9450   92.6747   10.0684 N.ar    1  UNL1       -0.1447
@<TRIPOS>BOND
     1    10    11    1
     2    11    12   ar
     3    12    13   ar
     4    13    14   ar
     5    14     1    1
     6     1     2    2
     7     1     3   am
     8     3     4    1
     9     4     5    1
    10     5     6    1
    11     5     7    1
    12     7     8    1
    13     8     9    1
    14     9    23    1
    15    23    24    1
    16    24    25   ar
    17    25    26   ar
    18    26    27   ar
    19    27    28   ar
    20    28    30    1
    21    30    31   ar
    22    31    32   ar
    23    32    33   ar
    24    33    34   ar
    25    28    29   ar
    26    14    15   ar
    27    15    18    1
    28    18    19   ar
    29    19    20   ar
    30    20    21   ar
    31    21    22   ar
    32    15    16   ar
    33    16    17    1
    34    16    11   ar
    35     9     3    1
    36    29    24   ar
    37    22    18   ar
    38    34    30   ar
@<TRIPOS>MOLECULE
*****
 34 38 0 0 0
SMALL
GASTEIGER

@<TRIPOS>ATOM
      1 C          63.7112   87.4092   13.5732 C.2     1  UNL1        0.2506
      2 O          63.9133   88.2959   12.3804 O.2     1  UNL1       -0.2699
      3 N          63.4794   88.0136   14.9263 N.am    1  UNL1       -0.2724
      4 C          63.2772   87.1269   16.1192 C.3     1  UNL1        0.1231
      5 C          63.0454   87.7313   17.4723 C.3     1  UNL1        0.1351
      6 C          62.8432   86.8446   18.6652 C.3     1  UNL1        0.0339
      7 O          63.0157   89.2224   17.6326 O.3     1  UNL1       -0.3527
      8 C          63.2179   90.1091   16.4398 C.3     1  UNL1        0.1621
      9 C          63.4497   89.5047   15.0866 C.3     1  UNL1        0.1096
     10 C          63.8298   81.4447   12.9322 C.3     1  UNL1        0.0307
     11 C          63.8002   82.9358   13.0924 C.ar    1  UNL1       -0.0243
     12 C          64.5673   83.5859   14.2054 C.ar    1  UNL1       -0.0043
     13 C          64.5376   85.0770   14.3657 C.ar    1  UNL1        0.0057
     14 C          63.7408   85.9180   13.4130 C.ar    1  UNL1        0.0726
     15 C          62.9737   85.2679   12.3000 C.ar    1  UNL1        0.1029
     16 C          63.0034   83.7768   12.1397 C.ar    1  UNL1       -0.0062
     17 C          62.2362   83.1267   11.0266 C.3     1  UNL1        0.0323
     18 N          62.1768   86.1090   11.3472 N.ar    1  UNL1       -0.1480
     19 N          60.9176   86.8565   11.6721 N.ar    1  UNL1       -0.1447
     20 C          60.4618   87.5596   10.4280 C.ar    1  UNL1        0.1446
     21 C          61.4394   87.2467    9.3341 C.ar    1  UNL1        0.1446
     22 N          62.4993   86.3502    9.9022 N.ar    1  UNL1       -0.1447
     23 C          63.6518   90.3914   13.8938 C.3     1  UNL1        0.0488
     24 C          64.9344   91.1527   13.7339 C.ar    1  UNL1       -0.0189
     25 C          66.0297   90.9979   14.7469 C.ar    1  UNL1       -0.0041
     26 C          67.3122   91.7592   14.5871 C.ar    1  UNL1        0.0013
     27 C          67.4994   92.6753   13.4142 C.ar    1  UNL1        0.0209
     28 C          66.4041   92.8301   12.4012 C.ar    1  UNL1        0.1026
     29 C          65.1216   92.0688   12.5610 C.ar    1  UNL1        0.0167
     30 N          66.5912   93.7462   11.2282 N.ar    1  UNL1       -0.1478
     31 N          67.6471   93.6197   10.1703 N.ar    1  UNL1       -0.1447
     32 C          67.4638   94.7449    9.1955 C.ar    1  UNL1        0.1446
     33 C          66.2946   95.5670    9.6510 C.ar    1  UNL1        0.1446
     34 N          65.7554   94.9497   10.9073 N.ar    1  UNL1       -0.1447
@<TRIPOS>BOND
     1    10    11    1
     2    11    12   ar
     3    12    13   ar
     4    13    14   ar
     5    14     1    1
     6     1     2    2
     7     1     3   am
     8     3     4    1
     9     4     5    1
    10     5     6    1
    11     5     7    1
    12     7     8    1
    13     8     9    1
    14     9    23    1
    15    23    24    1
    16    24    25   ar
    17    25    26   ar
    18    26    27   ar
    19    27    28   ar
    20    28    30    1
    21    30    31   ar
    22    31    32   ar
    23    32    33   ar
    24    33    34   ar
    25    28    29   ar
    26    14    15   ar
    27    15    18    1
    28    18    19   ar
    29    19    20   ar
    30    20    21   ar
    31    21    22   ar
    32    15    16   ar
    33    16    17    1
    34    16    11   ar
    35     9     3    1
    36    29    24   ar
    37    22    18   ar
    38    34    30   ar
