@<TRIPOS>MOLECULE
*****
 33 37 0 0 0
SMALL
GASTEIGER

@<TRIPOS>ATOM
      1 C          59.4788   86.3549    7.7797 C.3     1  UNL1        0.0339
      2 C          60.1145   87.1170    8.9045 C.3     1  UNL1        0.1351
      3 C          61.1403   86.4533    9.7746 C.3     1  UNL1        0.1231
      4 N          61.7761   87.2154   10.8993 N.am    1  UNL1       -0.2724
      5 C          62.8020   86.5516   11.7694 C.2     1  UNL1        0.2506
      6 O          63.4377   87.3137   12.8942 O.2     1  UNL1       -0.2699
      7 C          61.3860   88.6412   11.1539 C.3     1  UNL1        0.1096
      8 C          60.3601   89.3049   10.2838 C.3     1  UNL1        0.1621
      9 O          59.7244   88.5428    9.1591 O.3     1  UNL1       -0.3527
     10 C          63.1921   85.1258   11.5148 C.ar    1  UNL1        0.0729
     11 C          63.3558   84.6329   10.1076 C.ar    1  UNL1        0.0061
     12 C          63.7459   83.2070    9.8530 C.ar    1  UNL1        0.0002
     13 C          63.9723   82.2741   11.0056 C.ar    1  UNL1        0.0016
     14 C          63.8086   82.7671   12.4128 C.ar    1  UNL1        0.0211
     15 C          63.4185   84.1929   12.6674 C.ar    1  UNL1        0.1072
     16 N          63.2547   84.6858   14.0746 N.ar    1  UNL1       -0.1477
     17 N          64.3287   85.2965   14.9255 N.ar    1  UNL1       -0.1447
     18 C          63.7260   85.6427   16.2548 C.ar    1  UNL1        0.1446
     19 C          62.2797   85.2460   16.2255 C.ar    1  UNL1        0.1446
     20 N          61.9885   84.6546   14.8781 N.ar    1  UNL1       -0.1447
     21 C          62.0217   89.4033   12.2787 C.3     1  UNL1        0.0487
     22 C          63.0742   90.4315   11.9873 C.ar    1  UNL1       -0.0203
     23 C          63.1175   91.1011   10.6457 C.ar    1  UNL1       -0.0042
     24 C          64.1700   92.1294   10.3543 C.ar    1  UNL1       -0.0002
     25 C          65.1792   92.4881   11.4045 C.ar    1  UNL1        0.0030
     26 C          65.1359   91.8186   12.7460 C.ar    1  UNL1        0.0355
     27 C          64.0834   90.7903   13.0375 C.ar    1  UNL1       -0.0012
     28 C          66.1450   92.1773   13.7962 C.ar    1  UNL1        0.1622
     29 N          65.6997   92.4498   15.2024 N.ar    1  UNL1       -0.2250
     30 C          66.7088   92.8085   16.2526 C.ar    1  UNL1        0.1022
     31 C          68.1634   92.8948   15.8966 C.ar    1  UNL1        0.0414
     32 C          68.6088   92.6224   14.4903 C.ar    1  UNL1        0.1022
     33 N          67.5997   92.2637   13.4401 N.ar    1  UNL1       -0.2250
@<TRIPOS>BOND
     1     2     1    1
     2     2     3    1
     3     3     4    1
     4     4     5   am
     5     5     6    2
     6     5    10    1
     7    10    11   ar
     8    11    12   ar
     9    12    13   ar
    10    13    14   ar
    11    14    15   ar
    12    15    16    1
    13    16    17   ar
    14    17    18   ar
    15    18    19   ar
    16    19    20   ar
    17     4     7    1
    18     7    21    1
    19    21    22    1
    20    22    23   ar
    21    23    24   ar
    22    24    25   ar
    23    25    26   ar
    24    26    28    1
    25    28    29   ar
    26    29    30   ar
    27    30    31   ar
    28    31    32   ar
    29    32    33   ar
    30    26    27   ar
    31     7     8    1
    32     8     9    1
    33     9     2    1
    34    15    10   ar
    35    20    16   ar
    36    27    22   ar
    37    33    28   ar
@<TRIPOS>MOLECULE
*****
 33 37 0 0 0
SMALL
GASTEIGER

@<TRIPOS>ATOM
      1 C          64.1103   84.0340   13.8064 C.3     1  UNL1        0.0339
      2 C          64.0607   85.5332   13.8144 C.3     1  UNL1        0.1351
      3 C          63.3954   86.2676   12.6884 C.3     1  UNL1        0.1231
      4 N          63.3459   87.7668   12.6964 N.am    1  UNL1       -0.2724
      5 C          62.6806   88.5013   11.5703 C.2     1  UNL1        0.2506
      6 O          62.6310   90.0004   11.5784 O.2     1  UNL1       -0.2699
      7 C          63.9615   88.5315   13.8305 C.3     1  UNL1        0.1096
      8 C          64.6268   87.7971   14.9565 C.3     1  UNL1        0.1621
      9 O          64.6764   86.2979   14.9485 O.3     1  UNL1       -0.3527
     10 C          62.0649   87.7366   10.4363 C.ar    1  UNL1        0.0729
     11 C          62.8898   86.7541    9.6589 C.ar    1  UNL1        0.0061
     12 C          62.2740   85.9894    8.5248 C.ar    1  UNL1        0.0002
     13 C          60.8335   86.2071    8.1681 C.ar    1  UNL1        0.0016
     14 C          60.0085   87.1896    8.9455 C.ar    1  UNL1        0.0211
     15 C          60.6242   87.9543   10.0796 C.ar    1  UNL1        0.1072
     16 N          59.7993   88.9367   10.8569 N.ar    1  UNL1       -0.1477
     17 N          59.0483   88.6501   12.1234 N.ar    1  UNL1       -0.1447
     18 C          58.3654   89.9146   12.5535 C.ar    1  UNL1        0.1446
     19 C          58.6944   90.9825   11.5530 C.ar    1  UNL1        0.1446
     20 N          59.5806   90.3782   10.5044 N.ar    1  UNL1       -0.1447
     21 C          63.9119   90.0307   13.8385 C.3     1  UNL1        0.0487
     22 C          65.1842   90.8234   13.7861 C.ar    1  UNL1       -0.0203
     23 C          66.1387   90.7872   14.9428 C.ar    1  UNL1       -0.0042
     24 C          67.4110   91.5800   14.8904 C.ar    1  UNL1       -0.0002
     25 C          67.7288   92.4090   13.6814 C.ar    1  UNL1        0.0030
     26 C          66.7744   92.4453   12.5248 C.ar    1  UNL1        0.0355
     27 C          65.5021   91.6525   12.5771 C.ar    1  UNL1       -0.0012
     28 C          67.0923   93.2743   11.3158 C.ar    1  UNL1        0.1622
     29 N          67.8390   92.6671   10.1652 N.ar    1  UNL1       -0.2250
     30 C          68.1569   93.4961    8.9562 C.ar    1  UNL1        0.1022
     31 C          67.7281   94.9323    8.8977 C.ar    1  UNL1        0.0414
     32 C          66.9813   95.5396   10.0483 C.ar    1  UNL1        0.1022
     33 N          66.6635   94.7105   11.2573 N.ar    1  UNL1       -0.2250
@<TRIPOS>BOND
     1     2     1    1
     2     2     3    1
     3     3     4    1
     4     4     5   am
     5     5     6    2
     6     5    10    1
     7    10    11   ar
     8    11    12   ar
     9    12    13   ar
    10    13    14   ar
    11    14    15   ar
    12    15    16    1
    13    16    17   ar
    14    17    18   ar
    15    18    19   ar
    16    19    20   ar
    17     4     7    1
    18     7    21    1
    19    21    22    1
    20    22    23   ar
    21    23    24   ar
    22    24    25   ar
    23    25    26   ar
    24    26    28    1
    25    28    29   ar
    26    29    30   ar
    27    30    31   ar
    28    31    32   ar
    29    32    33   ar
    30    26    27   ar
    31     7     8    1
    32     8     9    1
    33     9     2    1
    34    15    10   ar
    35    20    16   ar
    36    27    22   ar
    37    33    28   ar
@<TRIPOS>MOLECULE
*****
 33 37 0 0 0
SMALL
GASTEIGER

@<TRIPOS>ATOM
      1 C          62.8684   86.4911   18.3378 C.3     1  UNL1        0.0339
      2 C          63.0648   87.5060   17.2508 C.3     1  UNL1        0.1351
      3 C          63.2039   87.0608   15.8252 C.3     1  UNL1        0.1231
      4 N          63.4002   88.0756   14.7383 N.am    1  UNL1       -0.2724
      5 C          63.5393   87.6303   13.3126 C.2     1  UNL1        0.2506
      6 O          63.7357   88.6452   12.2257 O.2     1  UNL1       -0.2699
      7 C          63.4576   89.5358   15.0769 C.3     1  UNL1        0.1096
      8 C          63.3186   89.9810   16.5025 C.3     1  UNL1        0.1621
      9 O          63.1222   88.9661   17.5895 O.3     1  UNL1       -0.3527
     10 C          63.4819   86.1702   12.9740 C.ar    1  UNL1        0.0729
     11 C          64.2928   85.1850   13.7625 C.ar    1  UNL1        0.0061
     12 C          64.2355   83.7248   13.4238 C.ar    1  UNL1        0.0002
     13 C          63.3672   83.2499   12.2966 C.ar    1  UNL1        0.0016
     14 C          62.5563   84.2351   11.5081 C.ar    1  UNL1        0.0211
     15 C          62.6137   85.6952   11.8467 C.ar    1  UNL1        0.1072
     16 N          61.8028   86.6805   11.0582 N.ar    1  UNL1       -0.1477
     17 N          60.5951   87.4222   11.5496 N.ar    1  UNL1       -0.1447
     18 C          60.1031   88.2971   10.4349 C.ar    1  UNL1        0.1446
     19 C          61.0067   88.0961    9.2546 C.ar    1  UNL1        0.1446
     20 N          62.0571   87.0970    9.6398 N.ar    1  UNL1       -0.1447
     21 C          63.6540   90.5506   13.9900 C.3     1  UNL1        0.0487
     22 C          64.9831   91.2261   13.8258 C.ar    1  UNL1       -0.0203
     23 C          66.0763   90.9833   14.8239 C.ar    1  UNL1       -0.0042
     24 C          67.4054   91.6587   14.6598 C.ar    1  UNL1       -0.0002
     25 C          67.6416   92.5771   13.4975 C.ar    1  UNL1        0.0030
     26 C          66.5485   92.8199   12.4994 C.ar    1  UNL1        0.0355
     27 C          65.2193   92.1444   12.6635 C.ar    1  UNL1       -0.0012
     28 C          66.7847   93.7383   11.3371 C.ar    1  UNL1        0.1622
     29 N          67.5531   93.2546   10.1432 N.ar    1  UNL1       -0.2250
     30 C          67.7893   94.1730    8.9809 C.ar    1  UNL1        0.1022
     31 C          67.2569   95.5749    9.0125 C.ar    1  UNL1        0.0414
     32 C          66.4885   96.0587   10.2065 C.ar    1  UNL1        0.1022
     33 N          66.2523   95.1403   11.3688 N.ar    1  UNL1       -0.2250
@<TRIPOS>BOND
     1     2     1    1
     2     2     3    1
     3     3     4    1
     4     4     5   am
     5     5     6    2
     6     5    10    1
     7    10    11   ar
     8    11    12   ar
     9    12    13   ar
    10    13    14   ar
    11    14    15   ar
    12    15    16    1
    13    16    17   ar
    14    17    18   ar
    15    18    19   ar
    16    19    20   ar
    17     4     7    1
    18     7    21    1
    19    21    22    1
    20    22    23   ar
    21    23    24   ar
    22    24    25   ar
    23    25    26   ar
    24    26    28    1
    25    28    29   ar
    26    29    30   ar
    27    30    31   ar
    28    31    32   ar
    29    32    33   ar
    30    26    27   ar
    31     7     8    1
    32     8     9    1
    33     9     2    1
    34    15    10   ar
    35    20    16   ar
    36    27    22   ar
    37    33    28   ar
@<TRIPOS>MOLECULE
*****
 33 37 0 0 0
SMALL
GASTEIGER

@<TRIPOS>ATOM
      1 C          60.1577   88.7349    8.1800 C.3     1  UNL1        0.0339
      2 C          60.8394   89.0562    9.4770 C.3     1  UNL1        0.1351
      3 C          61.5755   87.9833   10.2233 C.3     1  UNL1        0.1231
      4 N          62.2572   88.3046   11.5202 N.am    1  UNL1       -0.2724
      5 C          62.9934   87.2316   12.2665 C.2     1  UNL1        0.2506
      6 O          63.6751   87.5529   13.5634 O.2     1  UNL1       -0.2699
      7 C          62.2028   89.6988   12.0708 C.3     1  UNL1        0.1096
      8 C          61.4667   90.7717   11.3246 C.3     1  UNL1        0.1621
      9 O          60.7850   90.4504   10.0276 O.3     1  UNL1       -0.3527
     10 C          63.0477   85.8374   11.7158 C.ar    1  UNL1        0.0729
     11 C          63.0368   85.6160   10.2323 C.ar    1  UNL1        0.0061
     12 C          63.0912   84.2217    9.6817 C.ar    1  UNL1        0.0002
     13 C          63.1565   83.0490   10.6145 C.ar    1  UNL1        0.0016
     14 C          63.1675   83.2704   12.0981 C.ar    1  UNL1        0.0211
     15 C          63.1131   84.6646   12.6487 C.ar    1  UNL1        0.1072
     16 N          63.1241   84.8860   14.1322 N.ar    1  UNL1       -0.1477
     17 N          64.3274   85.2133   14.9660 N.ar    1  UNL1       -0.1447
     18 C          63.8806   85.3485   16.3915 C.ar    1  UNL1        0.1446
     19 C          62.4013   85.1048   16.4388 C.ar    1  UNL1        0.1446
     20 N          61.9338   84.8190   15.0425 N.ar    1  UNL1       -0.1447
     21 C          62.8845   90.0200   13.3678 C.3     1  UNL1        0.0487
     22 C          64.2071   90.7276   13.3647 C.ar    1  UNL1       -0.0203
     23 C          65.1523   90.5558   14.5168 C.ar    1  UNL1       -0.0042
     24 C          66.4749   91.2633   14.5138 C.ar    1  UNL1       -0.0002
     25 C          66.8524   92.1427   13.3587 C.ar    1  UNL1        0.0030
     26 C          65.9074   92.3145   12.2066 C.ar    1  UNL1        0.0355
     27 C          64.5847   91.6069   12.2096 C.ar    1  UNL1       -0.0012
     28 C          66.2849   93.1938   11.0516 C.ar    1  UNL1        0.1622
     29 N          67.3047   92.7271   10.0556 N.ar    1  UNL1       -0.2250
     30 C          67.6822   93.6064    8.9005 C.ar    1  UNL1        0.1022
     31 C          67.0399   94.9525    8.7414 C.ar    1  UNL1        0.0414
     32 C          66.0200   95.4194    9.7374 C.ar    1  UNL1        0.1022
     33 N          65.6425   94.5400   10.8925 N.ar    1  UNL1       -0.2250
@<TRIPOS>BOND
     1     2     1    1
     2     2     3    1
     3     3     4    1
     4     4     5   am
     5     5     6    2
     6     5    10    1
     7    10    11   ar
     8    11    12   ar
     9    12    13   ar
    10    13    14   ar
    11    14    15   ar
    12    15    16    1
    13    16    17   ar
    14    17    18   ar
    15    18    19   ar
    16    19    20   ar
    17     4     7    1
    18     7    21    1
    19    21    22    1
    20    22    23   ar
    21    23    24   ar
    22    24    25   ar
    23    25    26   ar
    24    26    28    1
    25    28    29   ar
    26    29    30   ar
    27    30    31   ar
    28    31    32   ar
    29    32    33   ar
    30    26    27   ar
    31     7     8    1
    32     8     9    1
    33     9     2    1
    34    15    10   ar
    35    20    16   ar
    36    27    22   ar
    37    33    28   ar
