@<TRIPOS>MOLECULE
*****
 35 38 0 0 0
SMALL
GASTEIGER

@<TRIPOS>ATOM
      1 N          59.3987   93.4075    2.0572 N.am    1  UNL1       -0.2668
      2 C          60.4043   92.6262    2.8498 C.2     1  UNL1        0.3077
      3 O          61.8606   92.7051    2.4993 O.2     1  UNL1       -0.2522
      4 N          59.9536   91.7659    3.9930 N.am    1  UNL1       -0.2633
      5 C          60.9592   90.9845    4.7856 C.3     1  UNL1        0.0993
      6 C          60.5085   90.1243    5.9287 C.3     1  UNL1        0.0436
      7 C          59.0522   90.0454    6.2793 C.2     1  UNL1       -0.0408
      8 C          58.6015   89.1851    7.4225 C.2     1  UNL1       -0.0083
      9 C          58.0466   90.8267    5.4867 C.3     1  UNL1        0.0436
     10 C          58.4973   91.6870    4.3436 C.3     1  UNL1        0.0993
     11 H          58.4428   93.3558    2.2873 H       1  UNL1        0.1565
     12 C          61.2014   96.8486   -2.5154 C.3     1  UNL1        0.0521
     13 C          60.7507   95.9884   -1.3722 C.ar    1  UNL1        0.0595
     14 C          60.4875   94.5280   -1.5909 C.ar    1  UNL1        0.0160
     15 C          60.0368   93.6677   -0.4478 C.ar    1  UNL1        0.0175
     16 C          59.8494   94.2678    0.9141 C.ar    1  UNL1        0.0709
     17 C          60.1126   95.7282    1.1328 C.ar    1  UNL1        0.1131
     18 N          60.5633   96.5885   -0.0104 N.ar    1  UNL1       -0.2468
     19 C          59.6072   88.4037    8.2150 C.ar    1  UNL1        0.0024
     20 C          60.1069   87.0860    7.7014 C.ar    1  UNL1        0.0002
     21 C          61.1126   86.3047    8.4940 C.ar    1  UNL1        0.0031
     22 C          61.6185   86.8411    9.8002 C.ar    1  UNL1        0.0376
     23 C          61.1187   88.1588   10.3139 C.ar    1  UNL1        0.1472
     24 C          60.1131   88.9401    9.5213 C.ar    1  UNL1        0.0375
     25 O          61.6246   88.6952   11.6202 O.3     1  UNL1       -0.4361
     26 C          62.6400   89.7992   11.6348 C.ar    1  UNL1        0.2297
     27 C          62.9122   90.5845   10.3862 C.ar    1  UNL1        0.0581
     28 C          63.9276   91.6884   10.4008 C.ar    1  UNL1        0.0102
     29 C          64.6708   92.0071   11.6642 C.ar    1  UNL1        0.0907
     30 C          64.3986   91.2218   12.9129 C.ar    1  UNL1        0.1059
     31 N          63.3832   90.1179   12.8982 N.ar    1  UNL1       -0.2099
     32 C          65.6862   93.1111   11.6788 C.3     1  UNL1        0.4200
     33 F          66.7016   94.2150   11.6935 F       1  UNL1       -0.1658
     34 F          65.7661   93.0575   10.1820 F       1  UNL1       -0.1658
     35 F          65.6063   93.1647   13.1757 F       1  UNL1       -0.1658
@<TRIPOS>BOND
     1    12    13    1
     2    13    14   ar
     3    14    15   ar
     4    15    16   ar
     5    16     1    1
     6     1     2   am
     7     2     3    2
     8     2     4   am
     9     4     5    1
    10     5     6    1
    11     6     7    1
    12     7     8    2
    13     8    19    1
    14    19    20   ar
    15    20    21   ar
    16    21    22   ar
    17    22    23   ar
    18    23    25    1
    19    25    26    1
    20    26    27   ar
    21    27    28   ar
    22    28    29   ar
    23    29    32    1
    24    32    33    1
    25    32    34    1
    26    32    35    1
    27    29    30   ar
    28    30    31   ar
    29    23    24   ar
    30     7     9    1
    31     9    10    1
    32    16    17   ar
    33    17    18   ar
    34    18    13   ar
    35    10     4    1
    36    24    19   ar
    37    31    26   ar
    38     1    11    1
@<TRIPOS>MOLECULE
*****
 35 38 0 0 0
SMALL
GASTEIGER

@<TRIPOS>ATOM
      1 N          62.5901   82.8767   11.1634 N.am    1  UNL1       -0.2668
      2 C          63.3098   83.6205   12.2490 C.2     1  UNL1        0.3077
      3 O          64.1187   82.8686   13.2641 O.2     1  UNL1       -0.2522
      4 N          63.2207   85.1162   12.3196 N.am    1  UNL1       -0.2633
      5 C          63.9405   85.8600   13.4053 C.3     1  UNL1        0.0993
      6 C          63.8513   87.3557   13.4759 C.3     1  UNL1        0.0436
      7 C          63.0424   88.1075   12.4608 C.2     1  UNL1       -0.0408
      8 C          62.9532   89.6032   12.5314 C.2     1  UNL1       -0.0083
      9 C          62.3227   87.3637   11.3752 C.3     1  UNL1        0.0436
     10 C          62.4118   85.8680   11.3046 C.3     1  UNL1        0.0993
     11 H          62.0592   83.3701   10.4971 H       1  UNL1        0.1565
     12 C          62.9467   76.8939   10.8810 C.3     1  UNL1        0.0521
     13 C          62.8575   78.3896   10.9516 C.ar    1  UNL1        0.0595
     14 C          63.0213   79.2103    9.7067 C.ar    1  UNL1        0.0160
     15 C          62.9321   80.7060    9.7773 C.ar    1  UNL1        0.0175
     16 C          62.6792   81.3810   11.0928 C.ar    1  UNL1        0.0709
     17 C          62.5155   80.5603   12.3376 C.ar    1  UNL1        0.1131
     18 N          62.6046   79.0646   12.2670 N.ar    1  UNL1       -0.2468
     19 C          63.6730   90.3470   13.6171 C.ar    1  UNL1        0.0024
     20 C          63.2831   90.1436   15.0512 C.ar    1  UNL1        0.0002
     21 C          64.0029   90.8874   16.1369 C.ar    1  UNL1        0.0031
     22 C          65.1126   91.8346   15.7885 C.ar    1  UNL1        0.0376
     23 C          65.5025   92.0381   14.3544 C.ar    1  UNL1        0.1472
     24 C          64.7827   91.2943   13.2687 C.ar    1  UNL1        0.0375
     25 O          66.6121   92.9853   14.0060 O.3     1  UNL1       -0.4361
     26 C          66.6335   93.6541   12.6634 C.ar    1  UNL1        0.2297
     27 C          67.0950   92.8951   11.4547 C.ar    1  UNL1        0.0581
     28 C          67.1164   93.5639   10.1123 C.ar    1  UNL1        0.0102
     29 C          66.6763   94.9916    9.9785 C.ar    1  UNL1        0.0907
     30 C          66.2148   95.7506   11.1872 C.ar    1  UNL1        0.1059
     31 N          66.1934   95.0818   12.5296 N.ar    1  UNL1       -0.2099
     32 C          66.6977   95.6604    8.6359 C.3     1  UNL1        0.4200
     33 F          66.7191   96.3292    7.2935 F       1  UNL1       -0.1658
     34 F          67.3954   94.4675    8.0528 F       1  UNL1       -0.1658
     35 F          66.0000   96.8533    9.2191 F       1  UNL1       -0.1658
@<TRIPOS>BOND
     1    12    13    1
     2    13    14   ar
     3    14    15   ar
     4    15    16   ar
     5    16     1    1
     6     1     2   am
     7     2     3    2
     8     2     4   am
     9     4     5    1
    10     5     6    1
    11     6     7    1
    12     7     8    2
    13     8    19    1
    14    19    20   ar
    15    20    21   ar
    16    21    22   ar
    17    22    23   ar
    18    23    25    1
    19    25    26    1
    20    26    27   ar
    21    27    28   ar
    22    28    29   ar
    23    29    32    1
    24    32    33    1
    25    32    34    1
    26    32    35    1
    27    29    30   ar
    28    30    31   ar
    29    23    24   ar
    30     7     9    1
    31     9    10    1
    32    16    17   ar
    33    17    18   ar
    34    18    13   ar
    35    10     4    1
    36    24    19   ar
    37    31    26   ar
    38     1    11    1
@<TRIPOS>MOLECULE
*****
 35 38 0 0 0
SMALL
GASTEIGER

@<TRIPOS>ATOM
      1 N          60.4617   88.2024    6.9555 N.am    1  UNL1       -0.2668
      2 C          60.2114   87.6624    8.3323 C.2     1  UNL1        0.3077
      3 O          59.0446   88.1605    9.1327 O.2     1  UNL1       -0.2522
      4 N          61.1279   86.6243    8.9088 N.am    1  UNL1       -0.2633
      5 C          60.8775   86.0842   10.2857 C.3     1  UNL1        0.0993
      6 C          61.7940   85.0461   10.8622 C.3     1  UNL1        0.0436
      7 C          62.9608   84.5480   10.0619 C.2     1  UNL1       -0.0408
      8 C          63.8773   83.5099   10.6384 C.2     1  UNL1       -0.0083
      9 C          63.2111   85.0880    8.6851 C.3     1  UNL1        0.0436
     10 C          62.2946   86.1262    8.1085 C.3     1  UNL1        0.0993
     11 H          61.2275   87.8755    6.4302 H       1  UNL1        0.1565
     12 C          56.7958   92.3549    4.6493 C.3     1  UNL1        0.0521
     13 C          57.7123   91.3168    5.2259 C.ar    1  UNL1        0.0595
     14 C          59.1912   91.4093    4.9929 C.ar    1  UNL1        0.0160
     15 C          60.1077   90.3711    5.5694 C.ar    1  UNL1        0.0175
     16 C          59.5452   89.2405    6.3789 C.ar    1  UNL1        0.0709
     17 C          58.0664   89.1481    6.6119 C.ar    1  UNL1        0.1131
     18 N          57.1499   90.1862    6.0354 N.ar    1  UNL1       -0.2468
     19 C          63.6269   82.9699   12.0153 C.ar    1  UNL1        0.0024
     20 C          62.9863   81.6247   12.1883 C.ar    1  UNL1        0.0002
     21 C          62.7360   81.0846   13.5652 C.ar    1  UNL1        0.0031
     22 C          63.1263   81.8899   14.7690 C.ar    1  UNL1        0.0376
     23 C          63.7669   83.2352   14.5960 C.ar    1  UNL1        0.1472
     24 C          64.0172   83.7751   13.2191 C.ar    1  UNL1        0.0375
     25 O          64.1572   84.0404   15.7998 O.3     1  UNL1       -0.4361
     26 C          64.0198   85.5340   15.7798 C.ar    1  UNL1        0.2297
     27 C          64.6176   86.3272   14.6558 C.ar    1  UNL1        0.0581
     28 C          64.4802   87.8207   14.6358 C.ar    1  UNL1        0.0102
     29 C          63.7450   88.5211   15.7398 C.ar    1  UNL1        0.0907
     30 C          63.1472   87.7280   16.8638 C.ar    1  UNL1        0.1059
     31 N          63.2846   86.2344   16.8838 N.ar    1  UNL1       -0.2099
     32 C          63.6076   90.0147   15.7198 C.3     1  UNL1        0.4200
     33 F          63.4702   91.5082   15.6998 F       1  UNL1       -0.1658
     34 F          64.0055   90.0320   14.2737 F       1  UNL1       -0.1658
     35 F          63.2097   89.9975   17.1659 F       1  UNL1       -0.1658
@<TRIPOS>BOND
     1    12    13    1
     2    13    14   ar
     3    14    15   ar
     4    15    16   ar
     5    16     1    1
     6     1     2   am
     7     2     3    2
     8     2     4   am
     9     4     5    1
    10     5     6    1
    11     6     7    1
    12     7     8    2
    13     8    19    1
    14    19    20   ar
    15    20    21   ar
    16    21    22   ar
    17    22    23   ar
    18    23    25    1
    19    25    26    1
    20    26    27   ar
    21    27    28   ar
    22    28    29   ar
    23    29    32    1
    24    32    33    1
    25    32    34    1
    26    32    35    1
    27    29    30   ar
    28    30    31   ar
    29    23    24   ar
    30     7     9    1
    31     9    10    1
    32    16    17   ar
    33    17    18   ar
    34    18    13   ar
    35    10     4    1
    36    24    19   ar
    37    31    26   ar
    38     1    11    1
@<TRIPOS>MOLECULE
*****
 35 38 0 0 0
SMALL
GASTEIGER

@<TRIPOS>ATOM
      1 N          65.2170   91.5748   14.1416 N.am    1  UNL1       -0.2668
      2 C          64.9707   91.4655   12.6661 C.2     1  UNL1        0.3077
      3 O          65.9460   92.0647   11.6965 O.2     1  UNL1       -0.2522
      4 N          63.7492   90.7571   12.1600 N.am    1  UNL1       -0.2633
      5 C          63.5030   90.6478   10.6843 C.3     1  UNL1        0.0993
      6 C          62.2815   89.9394   10.1783 C.3     1  UNL1        0.0436
      7 C          61.3062   89.3403   11.1478 C.2     1  UNL1       -0.0408
      8 C          60.0848   88.6319   10.6418 C.2     1  UNL1       -0.0083
      9 C          61.5525   89.4496   12.6234 C.3     1  UNL1        0.0436
     10 C          62.7740   90.1580   13.1295 C.3     1  UNL1        0.0993
     11 H          64.5769   91.1816   14.7780 H       1  UNL1        0.1565
     12 C          70.1030   94.4085   16.1659 C.3     1  UNL1        0.0521
     13 C          68.8815   93.7001   15.6598 C.ar    1  UNL1        0.0595
     14 C          68.7138   92.2291   15.9007 C.ar    1  UNL1        0.0160
     15 C          67.4923   91.5207   15.3946 C.ar    1  UNL1        0.0175
     16 C          66.4385   92.2832   14.6477 C.ar    1  UNL1        0.0709
     17 C          66.6062   93.7542   14.4069 C.ar    1  UNL1        0.1131
     18 N          67.8277   94.4626   14.9129 N.ar    1  UNL1       -0.2468
     19 C          59.8385   88.5226    9.1661 C.ar    1  UNL1        0.0024
     20 C          60.0133   87.2044    8.4722 C.ar    1  UNL1        0.0002
     21 C          59.7671   87.0951    6.9965 C.ar    1  UNL1        0.0031
     22 C          59.3460   88.3041    6.2149 C.ar    1  UNL1        0.0376
     23 C          59.1712   89.6224    6.9089 C.ar    1  UNL1        0.1472
     24 C          59.4174   89.7316    8.3845 C.ar    1  UNL1        0.0375
     25 O          58.7501   90.8314    6.1273 O.3     1  UNL1       -0.4361
     26 C          59.6352   91.3684    5.0417 C.ar    1  UNL1        0.2297
     27 C          61.0603   90.9115    4.9413 C.ar    1  UNL1        0.0581
     28 C          61.9453   91.4484    3.8558 C.ar    1  UNL1        0.0102
     29 C          61.4052   92.4422    2.8706 C.ar    1  UNL1        0.0907
     30 C          59.9800   92.8991    2.9709 C.ar    1  UNL1        0.1059
     31 N          59.0950   92.3621    4.0565 N.ar    1  UNL1       -0.2099
     32 C          62.2902   92.9791    1.7850 C.3     1  UNL1        0.4200
     33 F          63.1753   93.5159    0.6994 F       1  UNL1       -0.1658
     34 F          61.5358   94.2753    1.8109 F       1  UNL1       -0.1658
     35 F          63.0446   91.6829    1.7590 F       1  UNL1       -0.1658
@<TRIPOS>BOND
     1    12    13    1
     2    13    14   ar
     3    14    15   ar
     4    15    16   ar
     5    16     1    1
     6     1     2   am
     7     2     3    2
     8     2     4   am
     9     4     5    1
    10     5     6    1
    11     6     7    1
    12     7     8    2
    13     8    19    1
    14    19    20   ar
    15    20    21   ar
    16    21    22   ar
    17    22    23   ar
    18    23    25    1
    19    25    26    1
    20    26    27   ar
    21    27    28   ar
    22    28    29   ar
    23    29    32    1
    24    32    33    1
    25    32    34    1
    26    32    35    1
    27    29    30   ar
    28    30    31   ar
    29    23    24   ar
    30     7     9    1
    31     9    10    1
    32    16    17   ar
    33    17    18   ar
    34    18    13   ar
    35    10     4    1
    36    24    19   ar
    37    31    26   ar
    38     1    11    1
@<TRIPOS>MOLECULE
*****
 35 38 0 0 0
SMALL
GASTEIGER

@<TRIPOS>ATOM
      1 N          60.2347   93.7590    1.6002 N.am    1  UNL1       -0.2668
      2 C          61.1061   92.9143    2.4816 C.2     1  UNL1        0.3077
      3 O          62.5831   92.8431    2.2296 O.2     1  UNL1       -0.2522
      4 N          60.5006   92.1407    3.6152 N.am    1  UNL1       -0.2633
      5 C          61.3721   91.2960    4.4967 C.3     1  UNL1        0.0993
      6 C          60.7665   90.5224    5.6303 C.3     1  UNL1        0.0436
      7 C          59.2895   90.5937    5.8823 C.2     1  UNL1       -0.0408
      8 C          58.6840   89.8201    7.0159 C.2     1  UNL1       -0.0083
      9 C          58.4181   91.4384    5.0008 C.3     1  UNL1        0.0436
     10 C          59.0237   92.2119    3.8673 C.3     1  UNL1        0.0993
     11 H          59.2654   93.8057    1.7656 H       1  UNL1        0.1565
     12 C          62.6569   96.8531   -2.9341 C.3     1  UNL1        0.0521
     13 C          62.0513   96.0796   -1.8005 C.ar    1  UNL1        0.0595
     14 C          62.1466   96.6048   -0.3988 C.ar    1  UNL1        0.0160
     15 C          61.5411   95.8313    0.7348 C.ar    1  UNL1        0.0175
     16 C          60.8403   94.5325    0.4666 C.ar    1  UNL1        0.0709
     17 C          60.7450   94.0073   -0.9352 C.ar    1  UNL1        0.1131
     18 N          61.3505   94.7808   -2.0687 N.ar    1  UNL1       -0.2468
     19 C          59.5555   88.9754    7.8974 C.ar    1  UNL1        0.0024
     20 C          59.1683   87.5577    8.1980 C.ar    1  UNL1        0.0002
     21 C          60.0398   86.7130    9.0795 C.ar    1  UNL1        0.0031
     22 C          61.2984   87.2859    9.6604 C.ar    1  UNL1        0.0376
     23 C          61.6856   88.7036    9.3598 C.ar    1  UNL1        0.1472
     24 C          60.8141   89.5483    8.4784 C.ar    1  UNL1        0.0375
     25 O          62.9443   89.2766    9.9408 O.3     1  UNL1       -0.4361
     26 C          63.0782   89.4401   11.4259 C.ar    1  UNL1        0.2297
     27 C          63.3916   88.2519   12.2860 C.ar    1  UNL1        0.0581
     28 C          63.5255   88.4155   13.7710 C.ar    1  UNL1        0.0102
     29 C          63.3460   89.7672   14.3958 C.ar    1  UNL1        0.0907
     30 C          63.0327   90.9555   13.5357 C.ar    1  UNL1        0.1059
     31 N          62.8988   90.7919   12.0507 N.ar    1  UNL1       -0.2099
     32 C          63.4800   89.9308   15.8809 C.3     1  UNL1        0.4200
     33 F          63.6139   90.0942   17.3659 F       1  UNL1       -0.1658
     34 F          63.6970   91.4038   15.6992 F       1  UNL1       -0.1658
     35 F          63.2629   88.4577   16.0627 F       1  UNL1       -0.1658
@<TRIPOS>BOND
     1    12    13    1
     2    13    14   ar
     3    14    15   ar
     4    15    16   ar
     5    16     1    1
     6     1     2   am
     7     2     3    2
     8     2     4   am
     9     4     5    1
    10     5     6    1
    11     6     7    1
    12     7     8    2
    13     8    19    1
    14    19    20   ar
    15    20    21   ar
    16    21    22   ar
    17    22    23   ar
    18    23    25    1
    19    25    26    1
    20    26    27   ar
    21    27    28   ar
    22    28    29   ar
    23    29    32    1
    24    32    33    1
    25    32    34    1
    26    32    35    1
    27    29    30   ar
    28    30    31   ar
    29    23    24   ar
    30     7     9    1
    31     9    10    1
    32    16    17   ar
    33    17    18   ar
    34    18    13   ar
    35    10     4    1
    36    24    19   ar
    37    31    26   ar
    38     1    11    1
