@<TRIPOS>MOLECULE
*****
 45 49 0 0 0
SMALL
GASTEIGER

@<TRIPOS>ATOM
      1 C          63.1391   88.9997   11.3791 C.2     1  UNL1        0.0332
      2 C          61.8829   88.8269   10.5780 C.2     1  UNL1        0.0101
      3 C          61.2437   87.4744   10.4676 C.2     1  UNL1        0.0255
      4 C          59.9874   87.3016    9.6664 C.3     1  UNL1        0.0351
      5 C          61.8609   86.2947   11.1586 C.2     1  UNL1        0.2278
      6 N          61.4606   84.8508   11.2298 N.2     1  UNL1       -0.0345
      7 C          62.4695   84.1313   12.0750 C.2     1  UNL1        0.3649
      8 N          63.4933   85.1305   12.5262 N.2     1  UNL1       -0.0380
      9 C          63.1172   86.4675   11.9598 C.2     1  UNL1        0.2184
     10 C          63.7563   87.8200   12.0700 C.3     1  UNL1        0.1186
     11 C          62.4568   82.6693   12.4103 C.3     1  UNL1        0.2250
     12 C          62.0947   82.2205   13.7949 C.2     1  UNL1        0.0436
     13 C          62.0821   80.7584   14.1301 C.2     1  UNL1        0.0288
     14 C          62.4315   79.7452   13.0807 C.2     1  UNL1        0.0896
     15 N          62.7937   80.1941   11.6960 N.am    1  UNL1       -0.1770
     16 C          62.8063   81.6562   11.3608 C.2     1  UNL1        0.2627
     17 O          63.1684   82.1050    9.9761 O.2     1  UNL1       -0.2719
     18 N          61.7452   83.2335   14.8444 N.pl3   1  UNL1       -0.3329
     19 H          60.8693   83.6825   14.8229 H       1  UNL1        0.1466
     20 C          62.7303   83.5627   15.9267 C.3     1  UNL1        0.1211
     21 C          63.7586   84.6319   15.7050 C.3     1  UNL1        0.1522
     22 O          65.0165   84.3178   14.9506 O.3     1  UNL1       -0.3783
     23 H          65.0064   83.3868   14.6786 H       1  UNL1        0.2109
     24 C          63.5291   86.0153   16.2376 C.ar    1  UNL1        0.0067
     25 C          62.8164   86.2076   17.5433 C.ar    1  UNL1       -0.0018
     26 C          62.5869   87.5909   18.0760 C.ar    1  UNL1        0.0006
     27 C          63.0702   88.7820   17.3028 C.ar    1  UNL1        0.0114
     28 C          63.7829   88.5897   15.9971 C.ar    1  UNL1        0.0574
     29 CL         64.2661   89.7808   15.2240 Cl      1  UNL1       -0.0823
     30 C          64.0124   87.2064   15.4645 C.ar    1  UNL1        0.0095
     31 C          65.0566   93.0573   11.7102 C.3     1  UNL1        0.0611
     32 C          64.9935   92.1575   12.9087 C.3     1  UNL1        0.0374
     33 C          64.3543   90.8050   12.7983 C.3     1  UNL1        0.0919
     34 N          63.7783   90.3523   11.4894 N.pl3   1  UNL1       -0.3103
     35 C          63.8414   91.2520   10.2910 C.3     1  UNL1        0.0919
     36 C          64.4806   92.6046   10.4013 C.3     1  UNL1        0.0374
     37 N          65.6958   94.4098   11.8206 N.3     1  UNL1       -0.2696
     38 C          65.5853   95.3863   10.6873 C.3     1  UNL1        0.1046
     39 C          66.7023   95.5120    9.6940 C.3     1  UNL1        0.1595
     40 C          67.9984   93.3302    9.1373 C.3     1  UNL1        0.1742
     41 O          67.9278   94.6580    9.8316 O.3     1  UNL1       -0.3496
     42 C          66.4455   94.7858   13.0642 C.3     1  UNL1        0.1046
     43 C          66.6549   93.7716   14.1493 C.3     1  UNL1        0.1595
     44 O          68.0215   93.2019   14.3898 O.3     1  UNL1       -0.3496
     45 C          68.7120   93.4370   15.7005 C.3     1  UNL1        0.1742
@<TRIPOS>BOND
     1    40    41    1
     2    41    39    1
     3    39    38    1
     4    38    37    1
     5    37    42    1
     6    42    43    1
     7    43    44    1
     8    44    45    1
     9    37    31    1
    10    31    32    1
    11    32    33    1
    12    33    34    1
    13    34     1    1
    14     1     2    2
    15     2     3    1
    16     3     4    1
    17     3     5    2
    18     5     6    1
    19     6     7    2
    20     7    11    1
    21    11    12    1
    22    12    18    1
    23    18    20    1
    24    20    21    1
    25    21    22    1
    26    21    24    1
    27    24    25   ar
    28    25    26   ar
    29    26    27   ar
    30    27    28   ar
    31    28    29    1
    32    28    30   ar
    33    12    13    2
    34    13    14    1
    35    14    15    2
    36    15    16    1
    37    16    17    2
    38     7     8    1
    39     8     9    2
    40     9    10    1
    41    34    35    1
    42    35    36    1
    43    36    31    1
    44    10     1    1
    45     9     5    1
    46    16    11    1
    47    30    24   ar
    48    18    19    1
    49    22    23    1
@<TRIPOS>MOLECULE
*****
 45 49 0 0 0
SMALL
GASTEIGER

@<TRIPOS>ATOM
      1 C          63.1706   89.0348   11.4108 C.2     1  UNL1        0.0332
      2 C          61.9201   88.8710   10.5990 C.2     1  UNL1        0.0101
      3 C          61.2792   87.5206   10.4729 C.2     1  UNL1        0.0255
      4 C          60.0286   87.3569    9.6610 C.3     1  UNL1        0.0351
      5 C          61.8889   86.3341   11.1588 C.2     1  UNL1        0.2278
      6 N          61.4853   84.8906   11.2153 N.2     1  UNL1       -0.0345
      7 C          62.4865   84.1622   12.0622 C.2     1  UNL1        0.3649
      8 N          63.5089   85.1557   12.5290 N.2     1  UNL1       -0.0380
      9 C          63.1395   86.4980   11.9707 C.2     1  UNL1        0.2184
     10 C          63.7804   87.8483   12.0967 C.3     1  UNL1        0.1186
     11 C          62.4685   82.6976   12.3854 C.3     1  UNL1        0.2250
     12 C          62.0910   82.2380   13.7625 C.2     1  UNL1        0.0436
     13 C          62.0731   80.7733   14.0857 C.2     1  UNL1        0.0288
     14 C          62.4326   79.7682   13.0319 C.2     1  UNL1        0.0896
     15 N          62.8101   80.2278   11.6548 N.am    1  UNL1       -0.1770
     16 C          62.8281   81.6925   11.3316 C.2     1  UNL1        0.2627
     17 O          63.2056   82.1521    9.9546 O.2     1  UNL1       -0.2719
     18 N          61.7315   83.2430   14.8163 N.pl3   1  UNL1       -0.3329
     19 H          60.8570   83.6943   14.7882 H       1  UNL1        0.1466
     20 C          62.7043   83.5605   15.9131 C.3     1  UNL1        0.1211
     21 C          63.7494   84.6165   15.7062 C.3     1  UNL1        0.1522
     22 O          65.0171   84.2843   14.9764 O.3     1  UNL1       -0.3783
     23 H          65.0009   83.3523   14.7079 H       1  UNL1        0.2109
     24 C          63.5267   86.0046   16.2290 C.ar    1  UNL1        0.0067
     25 C          62.7874   86.2111   17.5178 C.ar    1  UNL1       -0.0018
     26 C          62.5647   87.5993   18.0406 C.ar    1  UNL1        0.0006
     27 C          63.0813   88.7810   17.2747 C.ar    1  UNL1        0.0114
     28 C          63.8205   88.5746   15.9860 C.ar    1  UNL1        0.0574
     29 CL         64.3371   89.7563   15.2201 Cl      1  UNL1       -0.0823
     30 C          64.0432   87.1864   15.4631 C.ar    1  UNL1        0.0095
     31 C          65.0934   93.0858   11.7888 C.3     1  UNL1        0.0611
     32 C          64.5566   92.6310   10.4641 C.3     1  UNL1        0.0374
     33 C          63.9157   91.2807   10.3381 C.3     1  UNL1        0.0919
     34 N          63.8116   90.3852   11.5369 N.pl3   1  UNL1       -0.3103
     35 C          64.3483   90.8399   12.8616 C.3     1  UNL1        0.0919
     36 C          64.9892   92.1903   12.9877 C.3     1  UNL1        0.0374
     37 N          65.7343   94.4361   11.9148 N.3     1  UNL1       -0.2696
     38 C          66.4656   94.8049   13.1714 C.3     1  UNL1        0.1046
     39 C          66.7539   93.7577   14.2062 C.3     1  UNL1        0.1595
     40 C          68.7180   92.7110   15.5464 C.3     1  UNL1        0.1742
     41 O          68.0914   93.0794   14.2343 O.3     1  UNL1       -0.3496
     42 C          65.6438   95.4177   10.7842 C.3     1  UNL1        0.1046
     43 C          66.7733   95.5397    9.8047 C.3     1  UNL1        0.1595
     44 O          67.9457   94.6080    9.8921 O.3     1  UNL1       -0.3496
     45 C          68.0020   93.3897    9.0189 C.3     1  UNL1        0.1742
@<TRIPOS>BOND
     1    40    41    1
     2    41    39    1
     3    39    38    1
     4    38    37    1
     5    37    42    1
     6    42    43    1
     7    43    44    1
     8    44    45    1
     9    37    31    1
    10    31    32    1
    11    32    33    1
    12    33    34    1
    13    34     1    1
    14     1     2    2
    15     2     3    1
    16     3     4    1
    17     3     5    2
    18     5     6    1
    19     6     7    2
    20     7    11    1
    21    11    12    1
    22    12    18    1
    23    18    20    1
    24    20    21    1
    25    21    22    1
    26    21    24    1
    27    24    25   ar
    28    25    26   ar
    29    26    27   ar
    30    27    28   ar
    31    28    29    1
    32    28    30   ar
    33    12    13    2
    34    13    14    1
    35    14    15    2
    36    15    16    1
    37    16    17    2
    38     7     8    1
    39     8     9    2
    40     9    10    1
    41    34    35    1
    42    35    36    1
    43    36    31    1
    44    10     1    1
    45     9     5    1
    46    16    11    1
    47    30    24   ar
    48    18    19    1
    49    22    23    1
@<TRIPOS>MOLECULE
*****
 45 49 0 0 0
SMALL
GASTEIGER

@<TRIPOS>ATOM
      1 C          63.3576   86.3900   14.3724 C.2     1  UNL1        0.0332
      2 C          63.1657   86.9857   15.7355 C.2     1  UNL1        0.0101
      3 C          63.4792   88.4335   15.9722 C.2     1  UNL1        0.0255
      4 C          63.2872   89.0292   17.3354 C.3     1  UNL1        0.0351
      5 C          63.9845   89.2853   14.8457 C.2     1  UNL1        0.2278
      6 N          64.3748   90.7320   14.7784 N.2     1  UNL1       -0.0345
      7 C          64.8079   91.0304   13.3736 C.2     1  UNL1        0.3649
      8 N          64.6853   89.7680   12.5728 N.2     1  UNL1       -0.0380
      9 C          64.1764   88.6894   13.4826 C.2     1  UNL1        0.2184
     10 C          63.8630   87.2418   13.2459 C.3     1  UNL1        0.1186
     11 C          65.2807   92.3580   12.8599 C.3     1  UNL1        0.2250
     12 C          65.1699   92.6795   11.3989 C.2     1  UNL1        0.0436
     13 C          65.6427   94.0071   10.8853 C.2     1  UNL1        0.0288
     14 C          66.2262   95.0133   11.8324 C.2     1  UNL1        0.0896
     15 N          66.3369   94.6918   13.2934 N.am    1  UNL1       -0.1770
     16 C          65.8642   93.3641   13.8071 C.2     1  UNL1        0.2627
     17 O          65.9749   93.0426   15.2680 O.2     1  UNL1       -0.2719
     18 N          64.5864   91.6734   10.4517 N.pl3   1  UNL1       -0.3329
     19 H          65.1674   90.9998   10.0298 H       1  UNL1        0.1466
     20 C          63.1178   91.6935   10.1472 C.3     1  UNL1        0.1211
     21 C          62.2029   90.6999   10.7995 C.3     1  UNL1        0.1522
     22 O          61.8184   90.8672   12.2397 O.3     1  UNL1       -0.3783
     23 H          62.2443   91.6617   12.5979 H       1  UNL1        0.2109
     24 C          61.6725   89.5389   10.0117 C.ar    1  UNL1        0.0067
     25 C          60.4291   89.6970    9.1878 C.ar    1  UNL1       -0.0018
     26 C          59.8987   88.5360    8.3999 C.ar    1  UNL1        0.0006
     27 C          60.6117   87.2168    8.4359 C.ar    1  UNL1        0.0114
     28 C          61.8551   87.0587    9.2598 C.ar    1  UNL1        0.0574
     29 CL         62.5682   85.7395    9.2958 Cl      1  UNL1       -0.0823
     30 C          62.3855   88.2197   10.0477 C.ar    1  UNL1        0.0095
     31 C          62.4173   82.0469   13.6624 C.3     1  UNL1        0.0611
     32 C          62.4160   82.5961   15.0582 C.3     1  UNL1        0.0374
     33 C          62.7294   84.0438   15.2949 C.3     1  UNL1        0.0919
     34 N          63.0442   84.9422   14.1357 N.pl3   1  UNL1       -0.3103
     35 C          63.0454   84.3931   12.7399 C.3     1  UNL1        0.0919
     36 C          62.7320   82.9454   12.5032 C.3     1  UNL1        0.0374
     37 N          62.1038   80.5993   13.4257 N.3     1  UNL1       -0.2696
     38 C          62.8504   79.8323   12.3749 C.3     1  UNL1        0.1046
     39 C          62.7957   80.2748   10.9426 C.3     1  UNL1        0.1595
     40 C          62.8664   77.7941   10.1738 C.3     1  UNL1        0.1742
     41 O          62.8045   79.2556    9.8420 O.3     1  UNL1       -0.3496
     42 C          61.0438   79.9186   14.2399 C.3     1  UNL1        0.1046
     43 C          59.6376   80.4405   14.2272 C.3     1  UNL1        0.1595
     44 O          58.5232   79.6072   14.7875 O.3     1  UNL1       -0.3496
     45 C          58.5788   78.1119   14.6818 C.3     1  UNL1        0.1742
@<TRIPOS>BOND
     1    40    41    1
     2    41    39    1
     3    39    38    1
     4    38    37    1
     5    37    42    1
     6    42    43    1
     7    43    44    1
     8    44    45    1
     9    37    31    1
    10    31    32    1
    11    32    33    1
    12    33    34    1
    13    34     1    1
    14     1     2    2
    15     2     3    1
    16     3     4    1
    17     3     5    2
    18     5     6    1
    19     6     7    2
    20     7    11    1
    21    11    12    1
    22    12    18    1
    23    18    20    1
    24    20    21    1
    25    21    22    1
    26    21    24    1
    27    24    25   ar
    28    25    26   ar
    29    26    27   ar
    30    27    28   ar
    31    28    29    1
    32    28    30   ar
    33    12    13    2
    34    13    14    1
    35    14    15    2
    36    15    16    1
    37    16    17    2
    38     7     8    1
    39     8     9    2
    40     9    10    1
    41    34    35    1
    42    35    36    1
    43    36    31    1
    44    10     1    1
    45     9     5    1
    46    16    11    1
    47    30    24   ar
    48    18    19    1
    49    22    23    1
@<TRIPOS>MOLECULE
*****
 45 49 0 0 0
SMALL
GASTEIGER

@<TRIPOS>ATOM
      1 C          63.3521   86.4287   14.3446 C.2     1  UNL1        0.0332
      2 C          63.1605   87.0308   15.7050 C.2     1  UNL1        0.0101
      3 C          63.4743   88.4795   15.9350 C.2     1  UNL1        0.0255
      4 C          63.2827   89.0816   17.2955 C.3     1  UNL1        0.0351
      5 C          63.9797   89.3260   14.8045 C.2     1  UNL1        0.2278
      6 N          64.3702   90.7724   14.7305 N.2     1  UNL1       -0.0345
      7 C          64.8032   91.0641   13.3243 C.2     1  UNL1        0.3649
      8 N          64.6803   89.7981   12.5293 N.2     1  UNL1       -0.0380
      9 C          64.1713   88.7239   13.4441 C.2     1  UNL1        0.2184
     10 C          63.8575   87.2752   13.2142 C.3     1  UNL1        0.1186
     11 C          65.2762   92.3893   12.8044 C.3     1  UNL1        0.2250
     12 C          65.1453   92.7125   11.3455 C.2     1  UNL1        0.0436
     13 C          65.6183   94.0377   10.8256 C.2     1  UNL1        0.0288
     14 C          66.2221   95.0396   11.7646 C.2     1  UNL1        0.0896
     15 N          66.3530   94.7163   13.2234 N.am    1  UNL1       -0.1770
     16 C          65.8800   93.3911   13.7433 C.2     1  UNL1        0.2627
     17 O          66.0109   93.0679   15.2022 O.2     1  UNL1       -0.2719
     18 N          64.5415   91.7108   10.4065 N.pl3   1  UNL1       -0.3329
     19 H          65.1174   91.0587    9.9455 H       1  UNL1        0.1466
     20 C          63.0603   91.7023   10.1697 C.3     1  UNL1        0.1211
     21 C          62.2004   90.6688   10.8348 C.3     1  UNL1        0.1522
     22 O          61.8849   90.7836   12.2968 O.3     1  UNL1       -0.3783
     23 H          62.3112   91.5763   12.6583 H       1  UNL1        0.2109
     24 C          61.6560   89.5205   10.0379 C.ar    1  UNL1        0.0067
     25 C          60.3985   89.6918    9.2384 C.ar    1  UNL1       -0.0018
     26 C          59.8541   88.5435    8.4415 C.ar    1  UNL1        0.0006
     27 C          60.5672   87.2239    8.4442 C.ar    1  UNL1        0.0114
     28 C          61.8246   87.0526    9.2437 C.ar    1  UNL1        0.0574
     29 CL         62.5377   85.7329    9.2463 Cl      1  UNL1       -0.0823
     30 C          62.3691   88.2009   10.0406 C.ar    1  UNL1        0.0095
     31 C          62.4108   82.0826   13.6547 C.3     1  UNL1        0.0611
     32 C          62.4951   82.6190   15.0530 C.3     1  UNL1        0.0374
     33 C          62.8088   84.0677   15.2830 C.3     1  UNL1        0.0919
     34 N          63.0383   84.9800   14.1146 N.pl3   1  UNL1       -0.3103
     35 C          62.9541   84.4436   12.7164 C.3     1  UNL1        0.0919
     36 C          62.6403   82.9949   12.4864 C.3     1  UNL1        0.0374
     37 N          62.0971   80.6339   13.4248 N.3     1  UNL1       -0.2696
     38 C          61.0443   79.9545   14.2494 C.3     1  UNL1        0.1046
     39 C          59.6335   80.4641   14.2323 C.3     1  UNL1        0.1595
     40 C          58.6705   78.0859   14.6407 C.3     1  UNL1        0.1742
     41 O          58.5102   79.5767   14.6805 O.3     1  UNL1       -0.3496
     42 C          62.8361   79.8647   12.3702 C.3     1  UNL1        0.1046
     43 C          62.8116   80.3323   10.9452 C.3     1  UNL1        0.1595
     44 O          62.8111   79.3318    9.8275 O.3     1  UNL1       -0.3496
     45 C          62.8929   77.8656   10.1334 C.3     1  UNL1        0.1742
@<TRIPOS>BOND
     1    40    41    1
     2    41    39    1
     3    39    38    1
     4    38    37    1
     5    37    42    1
     6    42    43    1
     7    43    44    1
     8    44    45    1
     9    37    31    1
    10    31    32    1
    11    32    33    1
    12    33    34    1
    13    34     1    1
    14     1     2    2
    15     2     3    1
    16     3     4    1
    17     3     5    2
    18     5     6    1
    19     6     7    2
    20     7    11    1
    21    11    12    1
    22    12    18    1
    23    18    20    1
    24    20    21    1
    25    21    22    1
    26    21    24    1
    27    24    25   ar
    28    25    26   ar
    29    26    27   ar
    30    27    28   ar
    31    28    29    1
    32    28    30   ar
    33    12    13    2
    34    13    14    1
    35    14    15    2
    36    15    16    1
    37    16    17    2
    38     7     8    1
    39     8     9    2
    40     9    10    1
    41    34    35    1
    42    35    36    1
    43    36    31    1
    44    10     1    1
    45     9     5    1
    46    16    11    1
    47    30    24   ar
    48    18    19    1
    49    22    23    1
@<TRIPOS>MOLECULE
*****
 45 49 0 0 0
SMALL
GASTEIGER

@<TRIPOS>ATOM
      1 C          63.0432   85.9553   12.9054 C.2     1  UNL1        0.0332
      2 C          62.4173   86.7805   11.8205 C.2     1  UNL1        0.0101
      3 C          62.7132   88.2483   11.7292 C.2     1  UNL1        0.0255
      4 C          62.0872   89.0735   10.6442 C.3     1  UNL1        0.0351
      5 C          63.6351   88.8906   12.7229 C.2     1  UNL1        0.2278
      6 N          64.1104   90.3043   12.8832 N.2     1  UNL1       -0.0345
      7 C          65.0300   90.3526   14.0672 C.2     1  UNL1        0.3649
      8 N          65.1231   88.9689   14.6387 N.2     1  UNL1       -0.0380
      9 C          64.2610   88.0653   13.8078 C.2     1  UNL1        0.2184
     10 C          63.9651   86.5976   13.8991 C.3     1  UNL1        0.1186
     11 C          65.7332   91.5709   14.5882 C.3     1  UNL1        0.2250
     12 C          66.9040   92.1379   13.8416 C.2     1  UNL1        0.0436
     13 C          67.6071   93.3562   14.3627 C.2     1  UNL1        0.0288
     14 C          67.1394   94.0074   15.6305 C.2     1  UNL1        0.0896
     15 N          65.9685   93.4403   16.3771 N.am    1  UNL1       -0.1770
     16 C          65.2654   92.2220   15.8560 C.2     1  UNL1        0.2627
     17 O          64.0946   91.6550   16.6026 O.2     1  UNL1       -0.2719
     18 N          67.3718   91.4868   12.5738 N.pl3   1  UNL1       -0.3329
     19 H          67.0499   90.5878   12.3344 H       1  UNL1        0.1466
     20 C          68.3301   92.2054   11.6709 C.3     1  UNL1        0.1211
     21 C          67.9494   92.4912   10.2485 C.3     1  UNL1        0.1522
     22 O          68.0475   91.4095    9.2140 O.3     1  UNL1       -0.3783
     23 H          68.3712   90.5943    9.6282 H       1  UNL1        0.2109
     24 C          67.4706   93.8588    9.8605 C.ar    1  UNL1        0.0067
     25 C          67.8003   94.4127    8.5061 C.ar    1  UNL1       -0.0018
     26 C          67.3215   95.7802    8.1182 C.ar    1  UNL1        0.0006
     27 C          66.5130   96.5940    9.0847 C.ar    1  UNL1        0.0114
     28 C          66.1834   96.0401   10.4391 C.ar    1  UNL1        0.0574
     29 CL         65.3749   96.8539   11.4056 Cl      1  UNL1       -0.0823
     30 C          66.6622   94.6725   10.8270 C.ar    1  UNL1        0.0095
     31 C          62.1554   81.5522   13.1793 C.3     1  UNL1        0.0611
     32 C          62.1580   82.3954   14.4199 C.3     1  UNL1        0.0374
     33 C          62.4540   83.8631   14.3285 C.3     1  UNL1        0.0919
     34 N          62.7472   84.4875   12.9966 N.pl3   1  UNL1       -0.3103
     35 C          62.7446   83.6444   11.7561 C.3     1  UNL1        0.0919
     36 C          62.4486   82.1766   11.8474 C.3     1  UNL1        0.0374
     37 N          61.8594   80.0845   13.2707 N.3     1  UNL1       -0.2696
     38 C          60.8099   79.5888   14.2208 C.3     1  UNL1        0.1046
     39 C          59.4541   80.2302   14.2418 C.3     1  UNL1        0.1595
     40 C          57.5218   79.9828   15.9608 C.3     1  UNL1        0.1742
     41 O          58.2729   79.4700   14.7679 O.3     1  UNL1       -0.3496
     42 C          62.6130   79.1126   12.4119 C.3     1  UNL1        0.1046
     43 C          62.7364   79.3543   10.9366 C.3     1  UNL1        0.1595
     44 O          62.7209   78.1964    9.9831 O.3     1  UNL1       -0.3496
     45 C          63.1235   76.8307   10.4551 C.3     1  UNL1        0.1742
@<TRIPOS>BOND
     1    40    41    1
     2    41    39    1
     3    39    38    1
     4    38    37    1
     5    37    42    1
     6    42    43    1
     7    43    44    1
     8    44    45    1
     9    37    31    1
    10    31    32    1
    11    32    33    1
    12    33    34    1
    13    34     1    1
    14     1     2    2
    15     2     3    1
    16     3     4    1
    17     3     5    2
    18     5     6    1
    19     6     7    2
    20     7    11    1
    21    11    12    1
    22    12    18    1
    23    18    20    1
    24    20    21    1
    25    21    22    1
    26    21    24    1
    27    24    25   ar
    28    25    26   ar
    29    26    27   ar
    30    27    28   ar
    31    28    29    1
    32    28    30   ar
    33    12    13    2
    34    13    14    1
    35    14    15    2
    36    15    16    1
    37    16    17    2
    38     7     8    1
    39     8     9    2
    40     9    10    1
    41    34    35    1
    42    35    36    1
    43    36    31    1
    44    10     1    1
    45     9     5    1
    46    16    11    1
    47    30    24   ar
    48    18    19    1
    49    22    23    1
@<TRIPOS>MOLECULE
*****
 45 49 0 0 0
SMALL
GASTEIGER

@<TRIPOS>ATOM
      1 C          63.1153   85.6051   12.3893 C.2     1  UNL1        0.0332
      2 C          62.5336   86.5136   11.3472 C.2     1  UNL1        0.0101
      3 C          62.6868   88.0001   11.4779 C.2     1  UNL1        0.0255
      4 C          62.1050   88.9085   10.4356 C.3     1  UNL1        0.0351
      5 C          63.4217   88.5780   12.6509 C.2     1  UNL1        0.2278
      6 N          63.7296   89.9922   13.0447 N.2     1  UNL1       -0.0345
      7 C          64.5016   89.9577   14.3303 C.2     1  UNL1        0.3649
      8 N          64.6708   88.5222   14.7310 N.2     1  UNL1       -0.0380
      9 C          64.0034   87.6694   13.6931 C.2     1  UNL1        0.2184
     10 C          63.8502   86.1830   13.5623 C.3     1  UNL1        0.1186
     11 C          65.0144   91.1496   15.0830 C.3     1  UNL1        0.2250
     12 C          66.2409   91.8682   14.6043 C.2     1  UNL1        0.0436
     13 C          66.7536   93.0600   15.3571 C.2     1  UNL1        0.0288
     14 C          66.0398   93.5332   16.5886 C.2     1  UNL1        0.0896
     15 N          64.8133   92.8147   17.0673 N.am    1  UNL1       -0.1770
     16 C          64.3006   91.6228   16.3145 C.2     1  UNL1        0.2627
     17 O          63.0740   90.9042   16.7932 O.2     1  UNL1       -0.2719
     18 N          66.9547   91.3950   13.3728 N.pl3   1  UNL1       -0.3329
     19 H          67.1887   90.4438   13.2744 H       1  UNL1        0.1466
     20 C          67.3121   92.3710   12.2914 C.3     1  UNL1        0.1211
     21 C          66.2637   92.8365   11.3248 C.3     1  UNL1        0.1522
     22 O          65.0832   91.9625   11.0205 O.3     1  UNL1       -0.3783
     23 H          65.1513   91.1388   11.5282 H       1  UNL1        0.2109
     24 C          66.3958   94.1759   10.6627 C.ar    1  UNL1        0.0067
     25 C          66.3796   95.4267   11.4904 C.ar    1  UNL1       -0.0018
     26 C          66.5117   96.7661   10.8282 C.ar    1  UNL1        0.0006
     27 C          66.6601   96.8548    9.3382 C.ar    1  UNL1        0.0114
     28 C          66.6764   95.6040    8.5105 C.ar    1  UNL1        0.0574
     29 CL         66.8247   95.6927    7.0205 Cl      1  UNL1       -0.0823
     30 C          66.5442   94.2646    9.1726 C.ar    1  UNL1        0.0095
     31 C          62.6558   81.1458   11.9973 C.3     1  UNL1        0.0611
     32 C          62.4228   81.8103   13.3218 C.3     1  UNL1        0.0374
     33 C          62.5760   83.2967   13.4524 C.3     1  UNL1        0.0919
     34 N          62.9621   84.1187   12.2586 N.pl3   1  UNL1       -0.3103
     35 C          63.1951   83.4543   10.9342 C.3     1  UNL1        0.0919
     36 C          63.0419   81.9678   10.8035 C.3     1  UNL1        0.0374
     37 N          62.5026   79.6594   11.8666 N.3     1  UNL1       -0.2696
     38 C          62.9054   78.9728   10.5953 C.3     1  UNL1        0.1046
     39 C          62.6453   77.5059   10.4203 C.3     1  UNL1        0.1595
     40 C          64.6649   76.4673    9.1583 C.3     1  UNL1        0.1742
     41 O          63.7927   76.5408   10.3765 O.3     1  UNL1       -0.3496
     42 C          61.9466   78.8596   13.0073 C.3     1  UNL1        0.1046
     43 C          61.3783   79.5585   14.2067 C.3     1  UNL1        0.1595
     44 O          59.9624   80.0533   14.1854 O.3     1  UNL1       -0.3496
     45 C          58.8365   79.1191   14.5167 C.3     1  UNL1        0.1742
@<TRIPOS>BOND
     1    40    41    1
     2    41    39    1
     3    39    38    1
     4    38    37    1
     5    37    42    1
     6    42    43    1
     7    43    44    1
     8    44    45    1
     9    37    31    1
    10    31    32    1
    11    32    33    1
    12    33    34    1
    13    34     1    1
    14     1     2    2
    15     2     3    1
    16     3     4    1
    17     3     5    2
    18     5     6    1
    19     6     7    2
    20     7    11    1
    21    11    12    1
    22    12    18    1
    23    18    20    1
    24    20    21    1
    25    21    22    1
    26    21    24    1
    27    24    25   ar
    28    25    26   ar
    29    26    27   ar
    30    27    28   ar
    31    28    29    1
    32    28    30   ar
    33    12    13    2
    34    13    14    1
    35    14    15    2
    36    15    16    1
    37    16    17    2
    38     7     8    1
    39     8     9    2
    40     9    10    1
    41    34    35    1
    42    35    36    1
    43    36    31    1
    44    10     1    1
    45     9     5    1
    46    16    11    1
    47    30    24   ar
    48    18    19    1
    49    22    23    1
@<TRIPOS>MOLECULE
*****
 45 49 0 0 0
SMALL
GASTEIGER

@<TRIPOS>ATOM
      1 C          61.5757   86.4158   10.0066 C.2     1  UNL1        0.0332
      2 C          61.5135   85.4457    8.8643 C.2     1  UNL1        0.0101
      3 C          60.9131   85.8658    7.5554 C.2     1  UNL1        0.0255
      4 C          60.8509   84.8956    6.4130 C.3     1  UNL1        0.0351
      5 C          60.3751   87.2560    7.3889 C.2     1  UNL1        0.2278
      6 N          59.7308   87.9503    6.2257 N.2     1  UNL1       -0.0345
      7 C          59.3949   89.3495    6.6492 C.2     1  UNL1        0.3649
      8 N          59.8315   89.5200    8.0741 N.2     1  UNL1       -0.0380
      9 C          60.4374   88.2262    8.5312 C.2     1  UNL1        0.2184
     10 C          61.0377   87.8060    9.8401 C.3     1  UNL1        0.1186
     11 C          58.7377   90.3947    5.7974 C.3     1  UNL1        0.2250
     12 C          59.5748   91.3102    4.9541 C.2     1  UNL1        0.0436
     13 C          58.9174   92.3554    4.1023 C.2     1  UNL1        0.0288
     14 C          57.4231   92.4851    4.0938 C.2     1  UNL1        0.0896
     15 N          56.5860   91.5696    4.9371 N.am    1  UNL1       -0.1770
     16 C          57.2433   90.5244    5.7889 C.2     1  UNL1        0.2627
     17 O          56.4062   89.6089    6.6321 O.2     1  UNL1       -0.2719
     18 N          61.0691   91.1805    4.9626 N.pl3   1  UNL1       -0.3329
     19 H          61.5845   91.4777    5.7470 H       1  UNL1        0.1466
     20 C          61.7782   90.5981    3.7760 C.3     1  UNL1        0.1211
     21 C          63.0030   91.2701    3.2300 C.3     1  UNL1        0.1522
     22 O          64.3651   90.7653    3.6040 O.3     1  UNL1       -0.3783
     23 H          64.2759   90.0057    4.2006 H       1  UNL1        0.2109
     24 C          62.8657   92.4469    2.3101 C.ar    1  UNL1        0.0067
     25 C          61.5114   93.0304    2.0357 C.ar    1  UNL1       -0.0018
     26 C          61.3742   94.2072    1.1158 C.ar    1  UNL1        0.0006
     27 C          62.5912   94.8006    0.4703 C.ar    1  UNL1        0.0114
     28 C          63.9455   94.2171    0.7448 C.ar    1  UNL1        0.0574
     29 CL         65.1626   94.8105    0.0993 Cl      1  UNL1       -0.0823
     30 C          64.0828   93.0403    1.6647 C.ar    1  UNL1        0.0095
     31 C          63.3765   85.1555   13.9333 C.3     1  UNL1        0.0611
     32 C          62.6035   84.1674   13.1111 C.3     1  UNL1        0.0374
     33 C          62.0032   84.5875   11.8023 C.3     1  UNL1        0.0919
     34 N          62.1760   85.9957   11.3155 N.pl3   1  UNL1       -0.3103
     35 C          62.9490   86.9839   12.1376 C.3     1  UNL1        0.0919
     36 C          63.5493   86.5638   13.4466 C.3     1  UNL1        0.0374
     37 N          63.9768   84.7354   15.2422 N.3     1  UNL1       -0.2696
     38 C          64.5956   83.3762   15.3816 C.3     1  UNL1        0.1046
     39 C          64.4147   82.3550   14.2977 C.3     1  UNL1        0.1595
     40 C          62.7999   80.5653   13.3285 C.3     1  UNL1        0.1742
     41 O          63.4817   81.1989   14.5048 O.3     1  UNL1       -0.3496
     42 C          63.9582   85.6746   16.4117 C.3     1  UNL1        0.1046
     43 C          62.6591   86.0141   17.0804 C.3     1  UNL1        0.1595
     44 O          62.1886   87.4377   17.1257 O.3     1  UNL1       -0.3496
     45 C          63.1311   88.5506   16.7751 C.3     1  UNL1        0.1742
@<TRIPOS>BOND
     1    40    41    1
     2    41    39    1
     3    39    38    1
     4    38    37    1
     5    37    42    1
     6    42    43    1
     7    43    44    1
     8    44    45    1
     9    37    31    1
    10    31    32    1
    11    32    33    1
    12    33    34    1
    13    34     1    1
    14     1     2    2
    15     2     3    1
    16     3     4    1
    17     3     5    2
    18     5     6    1
    19     6     7    2
    20     7    11    1
    21    11    12    1
    22    12    18    1
    23    18    20    1
    24    20    21    1
    25    21    22    1
    26    21    24    1
    27    24    25   ar
    28    25    26   ar
    29    26    27   ar
    30    27    28   ar
    31    28    29    1
    32    28    30   ar
    33    12    13    2
    34    13    14    1
    35    14    15    2
    36    15    16    1
    37    16    17    2
    38     7     8    1
    39     8     9    2
    40     9    10    1
    41    34    35    1
    42    35    36    1
    43    36    31    1
    44    10     1    1
    45     9     5    1
    46    16    11    1
    47    30    24   ar
    48    18    19    1
    49    22    23    1
@<TRIPOS>MOLECULE
*****
 45 49 0 0 0
SMALL
GASTEIGER

@<TRIPOS>ATOM
      1 C          61.5722   86.4115   10.0045 C.2     1  UNL1        0.0332
      2 C          61.5054   85.4418    8.8622 C.2     1  UNL1        0.0101
      3 C          60.8979   85.8615    7.5565 C.2     1  UNL1        0.0255
      4 C          60.8311   84.8916    6.4141 C.3     1  UNL1        0.0351
      5 C          60.3571   87.2510    7.3932 C.2     1  UNL1        0.2278
      6 N          59.7059   87.9448    6.2336 N.2     1  UNL1       -0.0345
      7 C          59.3702   89.3434    6.6594 C.2     1  UNL1        0.3649
      8 N          59.8139   89.5140    8.0820 N.2     1  UNL1       -0.0380
      9 C          60.4238   88.2208    8.5356 C.2     1  UNL1        0.2184
     10 C          61.0314   87.8011    9.8412 C.3     1  UNL1        0.1186
     11 C          58.7072   90.3880    5.8113 C.3     1  UNL1        0.2250
     12 C          59.5400   91.3217    4.9838 C.2     1  UNL1        0.0436
     13 C          58.8769   92.3663    4.1358 C.2     1  UNL1        0.0288
     14 C          57.3811   92.4772    4.1152 C.2     1  UNL1        0.0896
     15 N          56.5484   91.5435    4.9426 N.am    1  UNL1       -0.1770
     16 C          57.2115   90.4989    5.7907 C.2     1  UNL1        0.2627
     17 O          56.3787   89.5652    6.6182 O.2     1  UNL1       -0.2719
     18 N          61.0357   91.2108    5.0044 N.pl3   1  UNL1       -0.3329
     19 H          61.5410   91.5144    5.7929 H       1  UNL1        0.1466
     20 C          61.7616   90.6375    3.8236 C.3     1  UNL1        0.1211
     21 C          62.9558   91.3487    3.2596 C.3     1  UNL1        0.1522
     22 O          64.3370   90.8388    3.5465 O.3     1  UNL1       -0.3783
     23 H          64.2802   90.0487    4.1063 H       1  UNL1        0.2109
     24 C          62.7688   92.5698    2.4088 C.ar    1  UNL1        0.0067
     25 C          63.9634   93.2892    1.8564 C.ar    1  UNL1       -0.0018
     26 C          63.7764   94.5104    1.0056 C.ar    1  UNL1        0.0006
     27 C          62.3947   95.0121    0.7072 C.ar    1  UNL1        0.0114
     28 C          61.2000   94.2927    1.2596 C.ar    1  UNL1        0.0574
     29 CL         59.8183   94.7944    0.9611 Cl      1  UNL1       -0.0823
     30 C          61.3870   93.0716    2.1104 C.ar    1  UNL1        0.0095
     31 C          63.3947   85.1523   13.9215 C.3     1  UNL1        0.0611
     32 C          62.6358   84.1582   13.0934 C.3     1  UNL1        0.0374
     33 C          62.0282   84.5780   11.7878 C.3     1  UNL1        0.0919
     34 N          62.1797   85.9918   11.3102 N.pl3   1  UNL1       -0.3103
     35 C          62.9386   86.9859   12.1383 C.3     1  UNL1        0.0919
     36 C          63.5462   86.5662   13.4440 C.3     1  UNL1        0.0374
     37 N          64.0022   84.7326   15.2272 N.3     1  UNL1       -0.2696
     38 C          64.0701   85.7028   16.3691 C.3     1  UNL1        0.1046
     39 C          62.8283   86.0433   17.1387 C.3     1  UNL1        0.1595
     40 C          63.1639   88.5931   16.7706 C.3     1  UNL1        0.1742
     41 O          62.2650   87.4321   17.0770 O.3     1  UNL1       -0.3496
     42 C          64.5419   83.3426   15.3909 C.3     1  UNL1        0.1046
     43 C          64.4400   82.3606   14.2616 C.3     1  UNL1        0.1595
     44 O          63.6915   81.0746   14.4512 O.3     1  UNL1       -0.3496
     45 C          62.6438   80.6634   13.4597 C.3     1  UNL1        0.1742
@<TRIPOS>BOND
     1    40    41    1
     2    41    39    1
     3    39    38    1
     4    38    37    1
     5    37    42    1
     6    42    43    1
     7    43    44    1
     8    44    45    1
     9    37    31    1
    10    31    32    1
    11    32    33    1
    12    33    34    1
    13    34     1    1
    14     1     2    2
    15     2     3    1
    16     3     4    1
    17     3     5    2
    18     5     6    1
    19     6     7    2
    20     7    11    1
    21    11    12    1
    22    12    18    1
    23    18    20    1
    24    20    21    1
    25    21    22    1
    26    21    24    1
    27    24    25   ar
    28    25    26   ar
    29    26    27   ar
    30    27    28   ar
    31    28    29    1
    32    28    30   ar
    33    12    13    2
    34    13    14    1
    35    14    15    2
    36    15    16    1
    37    16    17    2
    38     7     8    1
    39     8     9    2
    40     9    10    1
    41    34    35    1
    42    35    36    1
    43    36    31    1
    44    10     1    1
    45     9     5    1
    46    16    11    1
    47    30    24   ar
    48    18    19    1
    49    22    23    1
@<TRIPOS>MOLECULE
*****
 45 49 0 0 0
SMALL
GASTEIGER

@<TRIPOS>ATOM
      1 C          61.7741   86.8402   10.2882 C.2     1  UNL1        0.0332
      2 C          62.2573   88.1601   10.8117 C.2     1  UNL1        0.0101
      3 C          61.8420   89.4329   10.1352 C.2     1  UNL1        0.0255
      4 C          62.3253   90.7529   10.6587 C.3     1  UNL1        0.0351
      5 C          60.9433   89.3856    8.9351 C.2     1  UNL1        0.2278
      6 N          60.3712   90.4663    8.0664 N.2     1  UNL1       -0.0345
      7 C          59.5343   89.8143    7.0061 C.2     1  UNL1        0.3649
      8 N          59.5892   88.3305    7.2194 N.2     1  UNL1       -0.0380
      9 C          60.4601   88.0656    8.4116 C.2     1  UNL1        0.2184
     10 C          60.8754   86.7929    9.0881 C.3     1  UNL1        0.1186
     11 C          58.7756   90.5217    5.9226 C.3     1  UNL1        0.2250
     12 C          59.5089   91.3619    4.9194 C.2     1  UNL1        0.0436
     13 C          58.7502   92.0693    3.8359 C.2     1  UNL1        0.0288
     14 C          57.2582   91.9367    3.7556 C.2     1  UNL1        0.0896
     15 N          56.5249   91.0965    4.7588 N.am    1  UNL1       -0.1770
     16 C          57.2837   90.3891    5.8423 C.2     1  UNL1        0.2627
     17 O          56.5504   89.5490    6.8455 O.2     1  UNL1       -0.2719
     18 N          61.0008   91.4946    4.9996 N.pl3   1  UNL1       -0.3329
     19 H          61.4193   91.8643    5.8104 H       1  UNL1        0.1466
     20 C          61.8553   91.0640    3.8444 C.3     1  UNL1        0.1211
     21 C          62.4594   92.0920    2.9342 C.3     1  UNL1        0.1522
     22 O          63.9050   92.4650    3.0789 O.3     1  UNL1       -0.3783
     23 H          64.3003   91.9530    3.8018 H       1  UNL1        0.2109
     24 C          61.6178   92.7469    1.8794 C.ar    1  UNL1        0.0067
     25 C          61.3149   92.0197    0.6029 C.ar    1  UNL1       -0.0018
     26 C          60.4733   92.6746   -0.4519 C.ar    1  UNL1        0.0006
     27 C          59.9345   94.0569   -0.2303 C.ar    1  UNL1        0.0114
     28 C          60.2373   94.7841    1.0461 C.ar    1  UNL1        0.0574
     29 CL         59.6985   96.1664    1.2677 Cl      1  UNL1       -0.0823
     30 C          61.0790   94.1292    2.1010 C.ar    1  UNL1        0.0095
     31 C          63.0201   83.0220   12.3177 C.3     1  UNL1        0.0611
     32 C          63.3215   83.2312   10.8632 C.3     1  UNL1        0.0374
     33 C          62.9062   84.5040   10.1868 C.3     1  UNL1        0.0919
     34 N          62.1894   85.5674   10.9647 N.pl3   1  UNL1       -0.3103
     35 C          61.8880   85.3582   12.4191 C.3     1  UNL1        0.0919
     36 C          62.3034   84.0854   13.0956 C.3     1  UNL1        0.0374
     37 N          63.4355   81.7492   12.9941 N.3     1  UNL1       -0.2696
     38 C          64.5047   81.7733   14.0458 C.3     1  UNL1        0.1046
     39 C          64.6724   82.9826   14.9173 C.3     1  UNL1        0.1595
     40 C          64.9830   85.5618   14.9508 C.3     1  UNL1        0.1742
     41 O          65.3149   84.2209   14.3661 O.3     1  UNL1       -0.3496
     42 C          62.7816   80.4524   12.6189 C.3     1  UNL1        0.1046
     43 C          61.7675   79.8317   13.5333 C.3     1  UNL1        0.1595
     44 O          60.7266   80.6886   14.1909 O.3     1  UNL1       -0.3496
     45 C          59.3009   80.2257   14.2480 C.3     1  UNL1        0.1742
@<TRIPOS>BOND
     1    40    41    1
     2    41    39    1
     3    39    38    1
     4    38    37    1
     5    37    42    1
     6    42    43    1
     7    43    44    1
     8    44    45    1
     9    37    31    1
    10    31    32    1
    11    32    33    1
    12    33    34    1
    13    34     1    1
    14     1     2    2
    15     2     3    1
    16     3     4    1
    17     3     5    2
    18     5     6    1
    19     6     7    2
    20     7    11    1
    21    11    12    1
    22    12    18    1
    23    18    20    1
    24    20    21    1
    25    21    22    1
    26    21    24    1
    27    24    25   ar
    28    25    26   ar
    29    26    27   ar
    30    27    28   ar
    31    28    29    1
    32    28    30   ar
    33    12    13    2
    34    13    14    1
    35    14    15    2
    36    15    16    1
    37    16    17    2
    38     7     8    1
    39     8     9    2
    40     9    10    1
    41    34    35    1
    42    35    36    1
    43    36    31    1
    44    10     1    1
    45     9     5    1
    46    16    11    1
    47    30    24   ar
    48    18    19    1
    49    22    23    1
