@<TRIPOS>MOLECULE
*****
 24 26 0 0 0
SMALL
GASTEIGER

@<TRIPOS>ATOM
      1 C          66.0450   92.8035   12.1124 C.3     1  UNL1        0.2115
      2 C          66.4002   93.8166   11.0648 C.ar    1  UNL1        0.0298
      3 C          65.9100   95.2287   11.1904 C.ar    1  UNL1        0.0009
      4 C          66.2652   96.2419   10.1428 C.ar    1  UNL1        0.0112
      5 C          67.1106   95.8428    8.9696 C.ar    1  UNL1        0.0585
      6 CL         67.4657   96.8559    7.9220 Cl      1  UNL1       -0.0822
      7 C          67.6007   94.4308    8.8441 C.ar    1  UNL1        0.0226
      8 C          67.2455   93.4176    9.8917 C.ar    1  UNL1        0.0579
      9 CL         67.7356   92.0056    9.7661 Cl      1  UNL1       -0.0824
     10 O          64.6063   92.5473   12.4507 O.3     1  UNL1       -0.4719
     11 CL         61.9132   87.5478   10.5137 Cl      1  UNL1       -0.0822
     12 C          62.5864   88.7977   10.9980 C.ar    1  UNL1        0.0587
     13 C          62.6805   89.9952   10.0996 C.ar    1  UNL1        0.0146
     14 C          63.3537   91.2451   10.5839 C.ar    1  UNL1        0.0387
     15 C          63.9330   91.2974   11.9665 C.ar    1  UNL1        0.1494
     16 C          63.8390   90.0999   12.8648 C.ar    1  UNL1        0.0924
     17 CL         64.4183   90.1523   14.2475 Cl      1  UNL1       -0.0791
     18 C          63.1657   88.8500   12.3806 C.ar    1  UNL1        0.0258
     19 C          67.1286   92.0465   12.8216 C.3     1  UNL1        0.1556
     20 N          67.4986   92.4090   14.2293 N.ar    1  UNL1       -0.3037
     21 C          68.8826   92.3986   14.8077 C.ar    1  UNL1        0.0981
     22 C          68.7890   92.8287   16.2416 C.ar    1  UNL1        0.1193
     23 N          67.3472   93.1049   16.5495 N.ar    1  UNL1       -0.2223
     24 C          66.5497   92.8456   15.3058 C.ar    1  UNL1        0.1787
@<TRIPOS>BOND
     1    11    12    1
     2    12    13   ar
     3    13    14   ar
     4    14    15   ar
     5    15    10    1
     6    10     1    1
     7     1    19    1
     8    19    20    1
     9    20    21   ar
    10    21    22   ar
    11    22    23   ar
    12    23    24   ar
    13     1     2    1
    14     2     3   ar
    15     3     4   ar
    16     4     5   ar
    17     5     6    1
    18     5     7   ar
    19     7     8   ar
    20     8     9    1
    21    15    16   ar
    22    16    17    1
    23    16    18   ar
    24    18    12   ar
    25    24    20   ar
    26     8     2   ar
@<TRIPOS>MOLECULE
*****
 24 26 0 0 0
SMALL
GASTEIGER

@<TRIPOS>ATOM
      1 C          63.1620   84.6032   13.7563 C.3     1  UNL1        0.2115
      2 C          62.9996   84.7979   12.2779 C.ar    1  UNL1        0.0298
      3 C          62.0740   85.8577   11.7581 C.ar    1  UNL1        0.0009
      4 C          61.9116   86.0524   10.2797 C.ar    1  UNL1        0.0112
      5 C          62.6748   85.1872    9.3210 C.ar    1  UNL1        0.0585
      6 CL         62.5124   85.3818    7.8426 Cl      1  UNL1       -0.0822
      7 C          63.6004   84.1274    9.8407 C.ar    1  UNL1        0.0226
      8 C          63.7628   83.9327   11.3192 C.ar    1  UNL1        0.0579
      9 CL         64.6883   82.8730   11.8389 Cl      1  UNL1       -0.0824
     10 O          64.2498   85.3270   14.4930 O.3     1  UNL1       -0.4719
     11 CL         63.3123   90.8995   16.5102 Cl      1  UNL1       -0.0822
     12 C          63.5467   89.5064   16.0059 C.ar    1  UNL1        0.0587
     13 C          64.1583   89.2914   14.6533 C.ar    1  UNL1        0.0146
     14 C          64.3926   87.8982   14.1490 C.ar    1  UNL1        0.0387
     15 C          64.0154   86.7201   14.9973 C.ar    1  UNL1        0.1494
     16 C          63.4038   86.9352   16.3500 C.ar    1  UNL1        0.0924
     17 CL         63.0265   85.7570   17.1984 Cl      1  UNL1       -0.0791
     18 C          63.1695   88.3283   16.8543 C.ar    1  UNL1        0.0258
     19 C          62.2366   83.6847   14.4979 C.3     1  UNL1        0.1556
     20 N          62.3252   82.2020   14.2890 N.ar    1  UNL1       -0.3037
     21 C          61.1760   81.2819   14.0011 C.ar    1  UNL1        0.0981
     22 C          61.7191   79.8903   13.8655 C.ar    1  UNL1        0.1193
     23 N          63.2039   79.9503   14.0696 N.ar    1  UNL1       -0.2223
     24 C          63.5785   81.3789   14.3314 C.ar    1  UNL1        0.1787
@<TRIPOS>BOND
     1    11    12    1
     2    12    13   ar
     3    13    14   ar
     4    14    15   ar
     5    15    10    1
     6    10     1    1
     7     1    19    1
     8    19    20    1
     9    20    21   ar
    10    21    22   ar
    11    22    23   ar
    12    23    24   ar
    13     1     2    1
    14     2     3   ar
    15     3     4   ar
    16     4     5   ar
    17     5     6    1
    18     5     7   ar
    19     7     8   ar
    20     8     9    1
    21    15    16   ar
    22    16    17    1
    23    16    18   ar
    24    18    12   ar
    25    24    20   ar
    26     8     2   ar
@<TRIPOS>MOLECULE
*****
 24 26 0 0 0
SMALL
GASTEIGER

@<TRIPOS>ATOM
      1 C          65.4902   91.8236   12.5870 C.3     1  UNL1        0.2115
      2 C          64.2927   91.1533   11.9817 C.ar    1  UNL1        0.0298
      3 C          63.7588   91.6219   10.6605 C.ar    1  UNL1        0.0009
      4 C          62.5612   90.9515   10.0551 C.ar    1  UNL1        0.0112
      5 C          61.8975   89.8126   10.7710 C.ar    1  UNL1        0.0585
      6 CL         60.6999   89.1423   10.1656 Cl      1  UNL1       -0.0822
      7 C          62.4314   89.3441   12.0921 C.ar    1  UNL1        0.0226
      8 C          63.6289   90.0144   12.6975 C.ar    1  UNL1        0.0579
      9 CL         64.1628   89.5459   14.0186 Cl      1  UNL1       -0.0824
     10 O          66.7286   92.0308   11.7663 O.3     1  UNL1       -0.4719
     11 CL         67.2138   96.8558    8.2331 Cl      1  UNL1       -0.0822
     12 C          67.0925   95.6495    9.1164 C.ar    1  UNL1        0.0587
     13 C          66.2634   95.7144   10.3647 C.ar    1  UNL1        0.0146
     14 C          66.1421   94.5081   11.2480 C.ar    1  UNL1        0.0387
     15 C          66.8499   93.2370   10.8830 C.ar    1  UNL1        0.1494
     16 C          67.6789   93.1721    9.6347 C.ar    1  UNL1        0.0924
     17 CL         68.3867   91.9010    9.2696 Cl      1  UNL1       -0.0791
     18 C          67.8002   94.3784    8.7514 C.ar    1  UNL1        0.0258
     19 C          65.4494   92.2869   14.0132 C.3     1  UNL1        0.1556
     20 N          66.7263   92.5842   14.7420 N.ar    1  UNL1       -0.3037
     21 C          67.3285   93.9426   14.9475 C.ar    1  UNL1        0.0981
     22 C          68.5995   93.7733   15.7258 C.ar    1  UNL1        0.1193
     23 N          68.7829   92.3102   16.0013 N.ar    1  UNL1       -0.2223
     24 C          67.6252   91.5754   15.3933 C.ar    1  UNL1        0.1787
@<TRIPOS>BOND
     1    11    12    1
     2    12    13   ar
     3    13    14   ar
     4    14    15   ar
     5    15    10    1
     6    10     1    1
     7     1    19    1
     8    19    20    1
     9    20    21   ar
    10    21    22   ar
    11    22    23   ar
    12    23    24   ar
    13     1     2    1
    14     2     3   ar
    15     3     4   ar
    16     4     5   ar
    17     5     6    1
    18     5     7   ar
    19     7     8   ar
    20     8     9    1
    21    15    16   ar
    22    16    17    1
    23    16    18   ar
    24    18    12   ar
    25    24    20   ar
    26     8     2   ar
@<TRIPOS>MOLECULE
*****
 24 26 0 0 0
SMALL
GASTEIGER

@<TRIPOS>ATOM
      1 C          61.9089   87.0243   10.7429 C.3     1  UNL1        0.2115
      2 C          62.4843   85.6796   11.0755 C.ar    1  UNL1        0.0298
      3 C          62.4557   85.1807   12.4899 C.ar    1  UNL1        0.0009
      4 C          63.0311   83.8360   12.8226 C.ar    1  UNL1        0.0112
      5 C          63.6351   82.9902   11.7409 C.ar    1  UNL1        0.0585
      6 CL         64.2105   81.6455   12.0735 Cl      1  UNL1       -0.0822
      7 C          63.6637   83.4892   10.3266 C.ar    1  UNL1        0.0226
      8 C          63.0883   84.8339    9.9939 C.ar    1  UNL1        0.0579
      9 CL         63.1168   85.3328    8.5797 Cl      1  UNL1       -0.0824
     10 O          62.8138   88.2112   10.5937 O.3     1  UNL1       -0.4719
     11 CL         64.5799   91.2661   15.4464 Cl      1  UNL1       -0.0822
     12 C          64.1384   90.5024   14.2332 C.ar    1  UNL1        0.0587
     13 C          64.0716   89.0045   14.2732 C.ar    1  UNL1        0.0146
     14 C          63.6301   88.2407   13.0600 C.ar    1  UNL1        0.0387
     15 C          63.2553   88.9750   11.8068 C.ar    1  UNL1        0.1494
     16 C          63.3221   90.4729   11.7669 C.ar    1  UNL1        0.0924
     17 CL         62.9473   91.2072   10.5137 Cl      1  UNL1       -0.0791
     18 C          63.7636   91.2366   12.9800 C.ar    1  UNL1        0.0258
     19 C          60.4285   87.1821   10.5594 C.3     1  UNL1        0.1556
     20 N          59.8838   87.6858    9.2558 N.ar    1  UNL1       -0.3037
     21 C          60.1121   89.0488    8.6725 C.ar    1  UNL1        0.0981
     22 C          59.3846   89.1204    7.3628 C.ar    1  UNL1        0.1193
     23 N          58.7066   87.8016    7.1365 N.ar    1  UNL1       -0.2223
     24 C          59.0151   86.9150    8.3064 C.ar    1  UNL1        0.1787
@<TRIPOS>BOND
     1    11    12    1
     2    12    13   ar
     3    13    14   ar
     4    14    15   ar
     5    15    10    1
     6    10     1    1
     7     1    19    1
     8    19    20    1
     9    20    21   ar
    10    21    22   ar
    11    22    23   ar
    12    23    24   ar
    13     1     2    1
    14     2     3   ar
    15     3     4   ar
    16     4     5   ar
    17     5     6    1
    18     5     7   ar
    19     7     8   ar
    20     8     9    1
    21    15    16   ar
    22    16    17    1
    23    16    18   ar
    24    18    12   ar
    25    24    20   ar
    26     8     2   ar
@<TRIPOS>MOLECULE
*****
 24 26 0 0 0
SMALL
GASTEIGER

@<TRIPOS>ATOM
      1 C          62.3198   86.6235   10.9250 C.3     1  UNL1        0.2115
      2 C          62.7013   85.2846   11.4834 C.ar    1  UNL1        0.0298
      3 C          62.5431   85.0109   12.9498 C.ar    1  UNL1        0.0009
      4 C          62.9245   83.6720   13.5083 C.ar    1  UNL1        0.0112
      5 C          63.4642   82.6068   12.6004 C.ar    1  UNL1        0.0585
      6 CL         63.8457   81.2679   13.1589 Cl      1  UNL1       -0.0822
      7 C          63.6224   82.8805   11.1341 C.ar    1  UNL1        0.0226
      8 C          63.2409   84.2194   10.5756 C.ar    1  UNL1        0.0579
      9 CL         63.3991   84.4931    9.1094 Cl      1  UNL1       -0.0824
     10 O          61.9436   87.7425   11.8503 O.3     1  UNL1       -0.4719
     11 CL         65.1928   92.7859   11.9354 Cl      1  UNL1       -0.0822
     12 C          64.3805   91.5250   11.9141 C.ar    1  UNL1        0.0587
     13 C          63.4254   91.2671   10.7866 C.ar    1  UNL1        0.0146
     14 C          62.6131   90.0062   10.7653 C.ar    1  UNL1        0.0387
     15 C          62.7559   89.0033   11.8715 C.ar    1  UNL1        0.1494
     16 C          63.7109   89.2613   12.9990 C.ar    1  UNL1        0.0924
     17 CL         63.8537   88.2584   14.1053 Cl      1  UNL1       -0.0791
     18 C          64.5232   90.5221   13.0203 C.ar    1  UNL1        0.0258
     19 C          62.3146   86.8433    9.4411 C.3     1  UNL1        0.1556
     20 N          61.0154   87.0302    8.7152 N.ar    1  UNL1       -0.3037
     21 C          60.2165   88.2980    8.6496 C.ar    1  UNL1        0.0981
     22 C          58.9943   88.0335    7.8212 C.ar    1  UNL1        0.1193
     23 N          59.0378   86.6020    7.3749 N.ar    1  UNL1       -0.2223
     24 C          60.2869   85.9820    7.9274 C.ar    1  UNL1        0.1787
@<TRIPOS>BOND
     1    11    12    1
     2    12    13   ar
     3    13    14   ar
     4    14    15   ar
     5    15    10    1
     6    10     1    1
     7     1    19    1
     8    19    20    1
     9    20    21   ar
    10    21    22   ar
    11    22    23   ar
    12    23    24   ar
    13     1     2    1
    14     2     3   ar
    15     3     4   ar
    16     4     5   ar
    17     5     6    1
    18     5     7   ar
    19     7     8   ar
    20     8     9    1
    21    15    16   ar
    22    16    17    1
    23    16    18   ar
    24    18    12   ar
    25    24    20   ar
    26     8     2   ar
@<TRIPOS>MOLECULE
*****
 24 26 0 0 0
SMALL
GASTEIGER

@<TRIPOS>ATOM
      1 C          62.4883   86.5304   11.4321 C.3     1  UNL1        0.2115
      2 C          62.2216   86.0404   10.0397 C.ar    1  UNL1        0.0298
      3 C          63.2270   85.1703    9.3454 C.ar    1  UNL1        0.0009
      4 C          62.9603   84.6802    7.9530 C.ar    1  UNL1        0.0112
      5 C          61.6881   85.0602    7.2550 C.ar    1  UNL1        0.0585
      6 CL         61.4214   84.5702    5.8626 Cl      1  UNL1       -0.0822
      7 C          60.6827   85.9303    7.9493 C.ar    1  UNL1        0.0226
      8 C          60.9494   86.4203    9.3417 C.ar    1  UNL1        0.0579
      9 CL         59.9440   87.2904   10.0360 Cl      1  UNL1       -0.0824
     10 O          61.9015   87.8310   11.8947 O.3     1  UNL1       -0.4719
     11 CL         64.8522   92.9654   10.9297 Cl      1  UNL1       -0.0822
     12 C          64.1145   91.6818   11.1710 C.ar    1  UNL1        0.0587
     13 C          63.1865   91.1418   10.1235 C.ar    1  UNL1        0.0146
     14 C          62.4489   89.8582   10.3648 C.ar    1  UNL1        0.0387
     15 C          62.6392   89.1146   11.6535 C.ar    1  UNL1        0.1494
     16 C          63.5671   89.6546   12.7009 C.ar    1  UNL1        0.0924
     17 CL         63.7575   88.9110   13.9897 Cl      1  UNL1       -0.0791
     18 C          64.3048   90.9382   12.4597 C.ar    1  UNL1        0.0258
     19 C          63.3418   85.7198   12.3619 C.3     1  UNL1        0.1556
     20 N          62.8538   84.3929   12.8630 N.ar    1  UNL1       -0.3037
     21 C          62.4337   84.0818   14.2690 C.ar    1  UNL1        0.0981
     22 C          62.0204   82.6408   14.3212 C.ar    1  UNL1        0.1193
     23 N          62.1852   82.0613   12.9474 N.ar    1  UNL1       -0.2223
     24 C          62.7003   83.1442   12.0463 C.ar    1  UNL1        0.1787
@<TRIPOS>BOND
     1    11    12    1
     2    12    13   ar
     3    13    14   ar
     4    14    15   ar
     5    15    10    1
     6    10     1    1
     7     1    19    1
     8    19    20    1
     9    20    21   ar
    10    21    22   ar
    11    22    23   ar
    12    23    24   ar
    13     1     2    1
    14     2     3   ar
    15     3     4   ar
    16     4     5   ar
    17     5     6    1
    18     5     7   ar
    19     7     8   ar
    20     8     9    1
    21    15    16   ar
    22    16    17    1
    23    16    18   ar
    24    18    12   ar
    25    24    20   ar
    26     8     2   ar
@<TRIPOS>MOLECULE
*****
 24 26 0 0 0
SMALL
GASTEIGER

@<TRIPOS>ATOM
      1 C          65.3650   92.3702   12.2091 C.3     1  UNL1        0.2115
      2 C          66.3669   92.3926   13.3252 C.ar    1  UNL1        0.0298
      3 C          65.9457   92.8100   14.7030 C.ar    1  UNL1        0.0009
      4 C          66.9476   92.8324   15.8191 C.ar    1  UNL1        0.0112
      5 C          68.3708   92.4374   15.5573 C.ar    1  UNL1        0.0585
      6 CL         69.3728   92.4598   16.6733 Cl      1  UNL1       -0.0822
      7 C          68.7921   92.0201   14.1795 C.ar    1  UNL1        0.0226
      8 C          67.7901   91.9977   13.0634 C.ar    1  UNL1        0.0579
      9 CL         68.2113   91.5803   11.6856 Cl      1  UNL1       -0.0824
     10 O          63.9411   91.9891   12.4870 O.3     1  UNL1       -0.4719
     11 CL         61.7526   86.8174   10.3743 Cl      1  UNL1       -0.0822
     12 C          62.2998   88.1103   10.9025 C.ar    1  UNL1        0.0587
     13 C          62.1213   89.3763   10.1181 C.ar    1  UNL1        0.0146
     14 C          62.6684   90.6693   10.6463 C.ar    1  UNL1        0.0387
     15 C          63.3940   90.6962   11.9588 C.ar    1  UNL1        0.1494
     16 C          63.5725   89.4301   12.7432 C.ar    1  UNL1        0.0924
     17 CL         64.2981   89.4570   14.0558 Cl      1  UNL1       -0.0791
     18 C          63.0253   88.1372   12.2150 C.ar    1  UNL1        0.0258
     19 C          65.7870   92.7290   10.8150 C.3     1  UNL1        0.1556
     20 N          66.2571   94.1200   10.5083 N.ar    1  UNL1       -0.3037
     21 C          66.9723   94.5545    9.2634 C.ar    1  UNL1        0.0981
     22 C          67.2519   96.0237    9.3783 C.ar    1  UNL1        0.1193
     23 N          66.7094   96.4972   10.6942 N.ar    1  UNL1       -0.2223
     24 C          66.0946   95.3206   11.3926 C.ar    1  UNL1        0.1787
@<TRIPOS>BOND
     1    11    12    1
     2    12    13   ar
     3    13    14   ar
     4    14    15   ar
     5    15    10    1
     6    10     1    1
     7     1    19    1
     8    19    20    1
     9    20    21   ar
    10    21    22   ar
    11    22    23   ar
    12    23    24   ar
    13     1     2    1
    14     2     3   ar
    15     3     4   ar
    16     4     5   ar
    17     5     6    1
    18     5     7   ar
    19     7     8   ar
    20     8     9    1
    21    15    16   ar
    22    16    17    1
    23    16    18   ar
    24    18    12   ar
    25    24    20   ar
    26     8     2   ar
@<TRIPOS>MOLECULE
*****
 24 26 0 0 0
SMALL
GASTEIGER

@<TRIPOS>ATOM
      1 C          62.1841   87.6572   10.5366 C.3     1  UNL1        0.2115
      2 C          61.9803   86.7630    9.3496 C.ar    1  UNL1        0.0298
      3 C          63.1248   85.9544    8.8145 C.ar    1  UNL1        0.0009
      4 C          62.9210   85.0601    7.6276 C.ar    1  UNL1        0.0112
      5 C          61.5727   84.9746    6.9757 C.ar    1  UNL1        0.0585
      6 CL         61.3689   84.0804    5.7888 Cl      1  UNL1       -0.0822
      7 C          60.4283   85.7832    7.5108 C.ar    1  UNL1        0.0226
      8 C          60.6321   86.6775    8.6978 C.ar    1  UNL1        0.0579
      9 CL         59.4877   87.4861    9.2329 Cl      1  UNL1       -0.0824
     10 O          62.0969   87.0937   11.9239 O.3     1  UNL1       -0.4719
     11 CL         64.3090   81.6399   13.0912 Cl      1  UNL1       -0.0822
     12 C          63.7560   83.0033   12.7994 C.ar    1  UNL1        0.0587
     13 C          62.7388   83.1831   11.7117 C.ar    1  UNL1        0.0146
     14 C          62.1858   84.5465   11.4199 C.ar    1  UNL1        0.0387
     15 C          62.6499   85.7302   12.2157 C.ar    1  UNL1        0.1494
     16 C          63.6671   85.5505   13.3034 C.ar    1  UNL1        0.0924
     17 CL         64.1313   86.7342   14.0993 Cl      1  UNL1       -0.0791
     18 C          64.2201   84.1870   13.5952 C.ar    1  UNL1        0.0258
     19 C          62.4751   89.1151   10.3361 C.3     1  UNL1        0.1556
     20 N          63.0479   89.9270   11.4598 N.ar    1  UNL1       -0.3037
     21 C          62.9828   89.5830   12.9184 C.ar    1  UNL1        0.0981
     22 C          63.6810   90.6688   13.6823 C.ar    1  UNL1        0.1193
     23 N          64.1775   91.6839   12.6958 N.ar    1  UNL1       -0.2223
     24 C          63.7863   91.2253   11.3222 C.ar    1  UNL1        0.1787
@<TRIPOS>BOND
     1    11    12    1
     2    12    13   ar
     3    13    14   ar
     4    14    15   ar
     5    15    10    1
     6    10     1    1
     7     1    19    1
     8    19    20    1
     9    20    21   ar
    10    21    22   ar
    11    22    23   ar
    12    23    24   ar
    13     1     2    1
    14     2     3   ar
    15     3     4   ar
    16     4     5   ar
    17     5     6    1
    18     5     7   ar
    19     7     8   ar
    20     8     9    1
    21    15    16   ar
    22    16    17    1
    23    16    18   ar
    24    18    12   ar
    25    24    20   ar
    26     8     2   ar
@<TRIPOS>MOLECULE
*****
 24 26 0 0 0
SMALL
GASTEIGER

@<TRIPOS>ATOM
      1 C          62.1819   87.8308   11.1691 C.3     1  UNL1        0.2115
      2 C          62.9814   88.7853   12.0058 C.ar    1  UNL1        0.0298
      3 C          63.5693   88.3297   13.3084 C.ar    1  UNL1        0.0009
      4 C          64.3687   89.2841   14.1451 C.ar    1  UNL1        0.0112
      5 C          64.5802   90.6941   13.6791 C.ar    1  UNL1        0.0585
      6 CL         65.3796   91.6486   14.5157 Cl      1  UNL1       -0.0822
      7 C          63.9923   91.1497   12.3765 C.ar    1  UNL1        0.0226
      8 C          63.1929   90.1952   11.5398 C.ar    1  UNL1        0.0579
      9 CL         62.6050   90.6508   10.2372 Cl      1  UNL1       -0.0824
     10 O          62.8487   86.6414   10.5442 O.3     1  UNL1       -0.4719
     11 CL         62.9160   81.3806   13.4286 Cl      1  UNL1       -0.0822
     12 C          62.8992   82.6958   12.7075 C.ar    1  UNL1        0.0587
     13 C          62.5260   83.9492   13.4421 C.ar    1  UNL1        0.0146
     14 C          62.5092   85.2644   12.7211 C.ar    1  UNL1        0.0387
     15 C          62.8656   85.3262   11.2653 C.ar    1  UNL1        0.1494
     16 C          63.2387   84.0728   10.5307 C.ar    1  UNL1        0.0924
     17 CL         63.5951   84.1346    9.0749 Cl      1  UNL1       -0.0791
     18 C          63.2556   82.7576   11.2518 C.ar    1  UNL1        0.0258
     19 C          60.7156   88.0659   10.9574 C.3     1  UNL1        0.1556
     20 N          60.1310   87.9641    9.5798 N.ar    1  UNL1       -0.3037
     21 C          59.7108   86.6992    8.8916 C.ar    1  UNL1        0.0981
     22 C          59.1840   87.0626    7.5350 C.ar    1  UNL1        0.1193
     23 N          59.2786   88.5521    7.3847 N.ar    1  UNL1       -0.2223
     24 C          59.8639   89.1092    8.6485 C.ar    1  UNL1        0.1787
@<TRIPOS>BOND
     1    11    12    1
     2    12    13   ar
     3    13    14   ar
     4    14    15   ar
     5    15    10    1
     6    10     1    1
     7     1    19    1
     8    19    20    1
     9    20    21   ar
    10    21    22   ar
    11    22    23   ar
    12    23    24   ar
    13     1     2    1
    14     2     3   ar
    15     3     4   ar
    16     4     5   ar
    17     5     6    1
    18     5     7   ar
    19     7     8   ar
    20     8     9    1
    21    15    16   ar
    22    16    17    1
    23    16    18   ar
    24    18    12   ar
    25    24    20   ar
    26     8     2   ar
