@<TRIPOS>MOLECULE
*****
 30 33 0 0 0
SMALL
GASTEIGER

@<TRIPOS>ATOM
      1 N          62.4180   88.0481   11.5867 N.ar    1  UNL1       -0.3068
      2 C          62.0738   88.3665   10.1619 C.ar    1  UNL1        0.1143
      3 C          62.6403   89.7174    9.8390 C.ar    1  UNL1        0.0533
      4 C          63.3345   90.2339   11.0642 C.ar    1  UNL1        0.1062
      5 N          64.0740   91.5103   11.3359 N.ar    1  UNL1       -0.2236
      6 C          64.6761   91.7551   12.6877 C.ar    1  UNL1        0.1809
      7 N          64.5388   90.7234   13.7679 N.ar    1  UNL1       -0.2750
      8 C          65.1409   90.9682   15.1198 C.3     1  UNL1        0.1352
      9 C          63.7993   89.4470   13.4962 C.ar    1  UNL1        0.2794
     10 O          63.6619   88.4153   14.5764 O.2     1  UNL1       -0.2653
     11 C          63.1971   89.2022   12.1444 C.ar    1  UNL1        0.1359
     12 N          61.2992   87.4883    9.2245 N.pl3   1  UNL1       -0.2932
     13 C          59.8156   87.6619    9.0876 C.3     1  UNL1        0.0922
     14 C          59.0410   86.7836    8.1503 C.3     1  UNL1        0.0228
     15 C          59.7500   85.7317    7.3498 C.3     1  UNL1        0.0177
     16 C          61.2336   85.5581    7.4867 C.3     1  UNL1        0.0575
     17 C          62.6148   85.0138    7.2721 C.3     1  UNL1        0.0173
     18 N          60.9388   84.4908    6.4748 N.3     1  UNL1       -0.3219
     19 C          62.0082   86.4364    8.4240 C.3     1  UNL1        0.1062
     20 H          59.9394   84.4825    6.2707 H       1  UNL1        0.1188
     21 H          61.2172   83.5829    6.8472 H       1  UNL1        0.1188
     22 C          62.0480   86.7956   12.3244 C.3     1  UNL1        0.1338
     23 C          63.6045   85.7282   14.6564 C.3     1  UNL1        0.0308
     24 C          63.6595   85.0247   13.3327 C.ar    1  UNL1       -0.0238
     25 C          64.4928   83.7875   13.1751 C.ar    1  UNL1       -0.0022
     26 C          64.5479   83.0839   11.8515 C.ar    1  UNL1        0.0293
     27 C          63.7697   83.6176   10.6854 C.ar    1  UNL1        0.1399
     28 F          63.8247   82.9141    9.3618 F       1  UNL1       -0.2042
     29 C          62.9364   84.8548   10.8431 C.ar    1  UNL1        0.0269
     30 C          62.8813   85.5584   12.1668 C.ar    1  UNL1       -0.0013
@<TRIPOS>BOND
     1    23    24    1
     2    24    25   ar
     3    25    26   ar
     4    26    27   ar
     5    27    28    1
     6    27    29   ar
     7    29    30   ar
     8    30    22    1
     9    22     1    1
    10     1     2   ar
    11     2    12    1
    12    12    13    1
    13    13    14    1
    14    14    15    1
    15    15    16    1
    16    16    17    1
    17    16    18    1
    18    16    19    1
    19     2     3   ar
    20     3     4   ar
    21     4     5   ar
    22     5     6   ar
    23     6     7   ar
    24     7     8    1
    25     7     9   ar
    26     9    10    2
    27     9    11   ar
    28    30    24   ar
    29    11     1   ar
    30    19    12    1
    31    11     4   ar
    32    18    20    1
    33    18    21    1
@<TRIPOS>MOLECULE
*****
 30 33 0 0 0
SMALL
GASTEIGER

@<TRIPOS>ATOM
      1 N          64.0696   89.7614   13.0966 N.ar    1  UNL1       -0.3068
      2 C          64.3075   89.5702   14.5652 C.ar    1  UNL1        0.1143
      3 C          65.0102   90.7899   15.0835 C.ar    1  UNL1        0.0533
      4 C          65.2066   91.7348   13.9352 C.ar    1  UNL1        0.1062
      5 N          65.8396   93.0919   13.8492 N.ar    1  UNL1       -0.2236
      6 C          65.8914   93.8134   12.5351 C.ar    1  UNL1        0.1809
      7 N          65.3101   93.1777   11.3071 N.ar    1  UNL1       -0.2750
      8 C          65.3619   93.8992    9.9930 C.3     1  UNL1        0.1352
      9 C          64.6770   91.8206   11.3932 C.ar    1  UNL1        0.2794
     10 O          64.0958   91.1849   10.1651 O.2     1  UNL1       -0.2653
     11 C          64.6253   91.0991   12.7072 C.ar    1  UNL1        0.1359
     12 N          63.9121   88.3701   15.3736 N.pl3   1  UNL1       -0.2932
     13 C          63.1184   88.5436   16.6345 C.3     1  UNL1        0.0922
     14 C          62.7231   87.3435   17.4429 C.3     1  UNL1        0.0228
     15 C          63.1213   85.9700   16.9904 C.3     1  UNL1        0.0177
     16 C          63.9150   85.7966   15.7295 C.3     1  UNL1        0.0575
     17 C          64.6614   85.1254   14.6148 C.3     1  UNL1        0.0173
     18 N          63.7789   84.3634   16.1507 N.3     1  UNL1       -0.3219
     19 C          64.3104   86.9966   14.9211 C.3     1  UNL1        0.1062
     20 H          63.2467   84.3134   17.0194 H       1  UNL1        0.1188
     21 H          64.7054   83.9622   16.2959 H       1  UNL1        0.1188
     22 C          63.3946   88.7860   12.1785 C.3     1  UNL1        0.1338
     23 C          62.6977   87.4731    9.5725 C.3     1  UNL1        0.0308
     24 C          61.7975   88.5272   10.1457 C.ar    1  UNL1       -0.0238
     25 C          60.5488   88.9248    9.4159 C.ar    1  UNL1       -0.0022
     26 C          59.6486   89.9789    9.9890 C.ar    1  UNL1        0.0293
     27 C          59.9970   90.6354   11.2920 C.ar    1  UNL1        0.1399
     28 F          59.0968   91.6895   11.8651 F       1  UNL1       -0.2042
     29 C          61.2457   90.2377   12.0218 C.ar    1  UNL1        0.0269
     30 C          62.1460   89.1836   11.4487 C.ar    1  UNL1       -0.0013
@<TRIPOS>BOND
     1    23    24    1
     2    24    25   ar
     3    25    26   ar
     4    26    27   ar
     5    27    28    1
     6    27    29   ar
     7    29    30   ar
     8    30    22    1
     9    22     1    1
    10     1     2   ar
    11     2    12    1
    12    12    13    1
    13    13    14    1
    14    14    15    1
    15    15    16    1
    16    16    17    1
    17    16    18    1
    18    16    19    1
    19     2     3   ar
    20     3     4   ar
    21     4     5   ar
    22     5     6   ar
    23     6     7   ar
    24     7     8    1
    25     7     9   ar
    26     9    10    2
    27     9    11   ar
    28    30    24   ar
    29    11     1   ar
    30    19    12    1
    31    11     4   ar
    32    18    20    1
    33    18    21    1
@<TRIPOS>MOLECULE
*****
 30 33 0 0 0
SMALL
GASTEIGER

@<TRIPOS>ATOM
      1 N          65.0611   91.4368   12.3590 N.ar    1  UNL1       -0.3068
      2 C          63.7642   90.7345   12.6325 C.ar    1  UNL1        0.1143
      3 C          63.5063   90.7958   14.1089 C.ar    1  UNL1        0.0533
      4 C          64.6439   91.5359   14.7478 C.ar    1  UNL1        0.1062
      5 N          64.9288   91.9003   16.1747 N.ar    1  UNL1       -0.2236
      6 C          66.1747   92.6609   16.5200 C.ar    1  UNL1        0.1809
      7 N          67.1356   93.0571   15.4385 N.ar    1  UNL1       -0.2750
      8 C          68.3815   93.8177   15.7839 C.3     1  UNL1        0.1352
      9 C          66.8506   92.6927   14.0116 C.ar    1  UNL1        0.2794
     10 O          67.8115   93.0889   12.9301 O.2     1  UNL1       -0.2653
     11 C          65.6047   91.9321   13.6663 C.ar    1  UNL1        0.1359
     12 N          62.8803   90.0850   11.6093 N.pl3   1  UNL1       -0.2932
     13 C          62.1486   90.9276   10.6070 C.3     1  UNL1        0.0922
     14 C          61.2648   90.2781    9.5838 C.3     1  UNL1        0.0228
     15 C          61.1126   88.7860    9.5629 C.3     1  UNL1        0.0177
     16 C          61.8443   87.9434   10.5652 C.3     1  UNL1        0.0575
     17 C          62.3273   86.7287   11.3009 C.3     1  UNL1        0.0173
     18 N          61.1282   86.8720    9.7976 N.3     1  UNL1       -0.3219
     19 C          62.7281   88.5929   11.5884 C.3     1  UNL1        0.1062
     20 H          60.5705   87.2988    9.0578 H       1  UNL1        0.1188
     21 H          60.5168   86.3530   10.4279 H       1  UNL1        0.1188
     22 C          65.7018   91.6129   11.0142 C.3     1  UNL1        0.1338
     23 C          68.2361   91.9432    9.4431 C.3     1  UNL1        0.0308
     24 C          67.3978   93.1420    9.7750 C.ar    1  UNL1       -0.0238
     25 C          67.8265   94.5059    9.3213 C.ar    1  UNL1       -0.0022
     26 C          66.9883   95.7047    9.6531 C.ar    1  UNL1        0.0293
     27 C          65.7211   95.5396   10.4387 C.ar    1  UNL1        0.1399
     28 F          64.8828   96.7383   10.7706 F       1  UNL1       -0.2042
     29 C          65.2923   94.1756   10.8924 C.ar    1  UNL1        0.0269
     30 C          66.1306   92.9768   10.5605 C.ar    1  UNL1       -0.0013
@<TRIPOS>BOND
     1    23    24    1
     2    24    25   ar
     3    25    26   ar
     4    26    27   ar
     5    27    28    1
     6    27    29   ar
     7    29    30   ar
     8    30    22    1
     9    22     1    1
    10     1     2   ar
    11     2    12    1
    12    12    13    1
    13    13    14    1
    14    14    15    1
    15    15    16    1
    16    16    17    1
    17    16    18    1
    18    16    19    1
    19     2     3   ar
    20     3     4   ar
    21     4     5   ar
    22     5     6   ar
    23     6     7   ar
    24     7     8    1
    25     7     9   ar
    26     9    10    2
    27     9    11   ar
    28    30    24   ar
    29    11     1   ar
    30    19    12    1
    31    11     4   ar
    32    18    20    1
    33    18    21    1
@<TRIPOS>MOLECULE
*****
 30 33 0 0 0
SMALL
GASTEIGER

@<TRIPOS>ATOM
      1 N          63.9513   90.3252   13.1316 N.ar    1  UNL1       -0.3068
      2 C          64.6300   89.7710   14.3491 C.ar    1  UNL1        0.1143
      3 C          65.9224   90.5091   14.5356 C.ar    1  UNL1        0.0533
      4 C          66.0425   91.5193   13.4333 C.ar    1  UNL1        0.1062
      5 N          67.1038   92.5281   13.1077 N.ar    1  UNL1       -0.2236
      6 C          66.9468   93.4232   11.9143 C.ar    1  UNL1        0.1809
      7 N          65.7285   93.3095   11.0466 N.ar    1  UNL1       -0.2750
      8 C          65.5716   94.2047    9.8532 C.3     1  UNL1        0.1352
      9 C          64.6673   92.3008   11.3723 C.ar    1  UNL1        0.2794
     10 O          63.4490   92.1871   10.5046 O.2     1  UNL1       -0.2653
     11 C          64.8243   91.4057   12.5656 C.ar    1  UNL1        0.1359
     12 N          64.1079   88.6718   15.2261 N.pl3   1  UNL1       -0.2932
     13 C          63.2148   88.9981   16.3862 C.3     1  UNL1        0.0922
     14 C          62.6927   87.8989   17.2633 C.3     1  UNL1        0.0228
     15 C          63.0636   86.4734   16.9802 C.3     1  UNL1        0.0177
     16 C          63.9567   86.1471   15.8201 C.3     1  UNL1        0.0575
     17 C          64.7661   85.3419   14.8472 C.3     1  UNL1        0.0173
     18 N          63.7158   84.7682   16.3592 N.3     1  UNL1       -0.3219
     19 C          64.4788   87.2463   14.9430 C.3     1  UNL1        0.1062
     20 H          63.1070   84.8239   17.1757 H       1  UNL1        0.1188
     21 H          64.6056   84.3474   16.6266 H       1  UNL1        0.1188
     22 C          62.6313   89.8774   12.5774 C.3     1  UNL1        0.1338
     23 C          61.6427   90.0248    9.7487 C.3     1  UNL1        0.0308
     24 C          62.0565   88.7058   10.3309 C.ar    1  UNL1       -0.0238
     25 C          61.9761   87.4604    9.4987 C.ar    1  UNL1       -0.0022
     26 C          62.3899   86.1414   10.0807 C.ar    1  UNL1        0.0293
     27 C          62.8842   86.0676   11.4950 C.ar    1  UNL1        0.1399
     28 F          63.2980   84.7486   12.0771 F       1  UNL1       -0.2042
     29 C          62.9646   87.3130   12.3272 C.ar    1  UNL1        0.0269
     30 C          62.5508   88.6321   11.7452 C.ar    1  UNL1       -0.0013
@<TRIPOS>BOND
     1    23    24    1
     2    24    25   ar
     3    25    26   ar
     4    26    27   ar
     5    27    28    1
     6    27    29   ar
     7    29    30   ar
     8    30    22    1
     9    22     1    1
    10     1     2   ar
    11     2    12    1
    12    12    13    1
    13    13    14    1
    14    14    15    1
    15    15    16    1
    16    16    17    1
    17    16    18    1
    18    16    19    1
    19     2     3   ar
    20     3     4   ar
    21     4     5   ar
    22     5     6   ar
    23     6     7   ar
    24     7     8    1
    25     7     9   ar
    26     9    10    2
    27     9    11   ar
    28    30    24   ar
    29    11     1   ar
    30    19    12    1
    31    11     4   ar
    32    18    20    1
    33    18    21    1
@<TRIPOS>MOLECULE
*****
 30 33 0 0 0
SMALL
GASTEIGER

@<TRIPOS>ATOM
      1 N          64.1851   89.1851   13.4105 N.ar    1  UNL1       -0.3068
      2 C          64.4220   90.6662   13.4015 C.ar    1  UNL1        0.1143
      3 C          63.5541   91.2679   12.3363 C.ar    1  UNL1        0.0533
      4 C          62.7808   90.1587   11.6870 C.ar    1  UNL1        0.1062
      5 N          61.7719   90.1545   10.5771 N.ar    1  UNL1       -0.2236
      6 C          61.1530   88.8630   10.1310 C.ar    1  UNL1        0.1809
      7 N          61.5430   87.5757   10.7949 N.ar    1  UNL1       -0.2750
      8 C          60.9240   86.2842   10.3488 C.3     1  UNL1        0.1352
      9 C          62.5519   87.5799   11.9049 C.ar    1  UNL1        0.2794
     10 O          62.9419   86.2926   12.5688 O.2     1  UNL1       -0.2653
     11 C          63.1708   88.8714   12.3510 C.ar    1  UNL1        0.1359
     12 N          65.3618   91.4143   14.2999 N.pl3   1  UNL1       -0.2932
     13 C          64.8865   91.9169   15.6308 C.3     1  UNL1        0.0922
     14 C          65.8263   92.6650   16.5292 C.3     1  UNL1        0.0228
     15 C          67.2415   92.9105   16.0967 C.3     1  UNL1        0.0177
     16 C          67.7167   92.4079   14.7657 C.3     1  UNL1        0.0575
     17 C          68.6284   92.1318   13.6070 C.3     1  UNL1        0.0173
     18 N          68.9732   93.0601   15.2616 N.3     1  UNL1       -0.3219
     19 C          66.7769   91.6598   13.8673 C.3     1  UNL1        0.1062
     20 H          68.8066   93.4614   16.1845 H       1  UNL1        0.1188
     21 H          69.2511   93.7983   14.6150 H       1  UNL1        0.1188
     22 C          64.8464   88.1920   14.3196 C.3     1  UNL1        0.1338
     23 C          63.3022   89.5114   16.5275 C.3     1  UNL1        0.0308
     24 C          63.2449   88.0221   16.3583 C.ar    1  UNL1       -0.0238
     25 C          62.4155   87.1925   17.2930 C.ar    1  UNL1       -0.0022
     26 C          62.3581   85.7032   17.1239 C.ar    1  UNL1        0.0293
     27 C          63.1302   85.0434   16.0200 C.ar    1  UNL1        0.1399
     28 F          63.0729   83.5541   15.8507 F       1  UNL1       -0.2042
     29 C          63.9596   85.8730   15.0852 C.ar    1  UNL1        0.0269
     30 C          64.0170   87.3624   15.2543 C.ar    1  UNL1       -0.0013
@<TRIPOS>BOND
     1    23    24    1
     2    24    25   ar
     3    25    26   ar
     4    26    27   ar
     5    27    28    1
     6    27    29   ar
     7    29    30   ar
     8    30    22    1
     9    22     1    1
    10     1     2   ar
    11     2    12    1
    12    12    13    1
    13    13    14    1
    14    14    15    1
    15    15    16    1
    16    16    17    1
    17    16    18    1
    18    16    19    1
    19     2     3   ar
    20     3     4   ar
    21     4     5   ar
    22     5     6   ar
    23     6     7   ar
    24     7     8    1
    25     7     9   ar
    26     9    10    2
    27     9    11   ar
    28    30    24   ar
    29    11     1   ar
    30    19    12    1
    31    11     4   ar
    32    18    20    1
    33    18    21    1
@<TRIPOS>MOLECULE
*****
 30 33 0 0 0
SMALL
GASTEIGER

@<TRIPOS>ATOM
      1 N          63.3632   83.9018   12.7802 N.ar    1  UNL1       -0.3068
      2 C          63.2306   84.3202   14.2145 C.ar    1  UNL1        0.1143
      3 C          62.8666   83.1077   15.0192 C.ar    1  UNL1        0.0533
      4 C          62.7741   81.9401   14.0821 C.ar    1  UNL1        0.1062
      5 N          62.4502   80.4934   14.3102 N.ar    1  UNL1       -0.2236
      6 C          62.4331   79.5374   13.1544 C.ar    1  UNL1        0.1809
      7 N          62.7401   80.0282   11.7706 N.ar    1  UNL1       -0.2750
      8 C          62.7230   79.0722   10.6148 C.3     1  UNL1        0.1352
      9 C          63.0641   81.4749   11.5426 C.ar    1  UNL1        0.2794
     10 O          63.3710   81.9657   10.1587 O.2     1  UNL1       -0.2653
     11 C          63.0811   82.4308   12.6983 C.ar    1  UNL1        0.1359
     12 N          63.4275   85.7074   14.7502 N.pl3   1  UNL1       -0.2932
     13 C          64.0798   86.7550   13.8976 C.3     1  UNL1        0.0922
     14 C          64.2767   88.1422   14.4332 C.3     1  UNL1        0.0228
     15 C          63.8213   88.4818   15.8214 C.3     1  UNL1        0.0177
     16 C          63.1690   87.4341   16.6741 C.3     1  UNL1        0.0575
     17 C          62.5050   86.7906   17.8552 C.3     1  UNL1        0.0173
     18 N          63.1353   88.5978   17.6199 N.3     1  UNL1       -0.3219
     19 C          62.9721   86.0469   16.1384 C.3     1  UNL1        0.1062
     20 H          63.5561   89.4121   17.1724 H       1  UNL1        0.1188
     21 H          63.6588   88.3652   18.4639 H       1  UNL1        0.1188
     22 C          63.7160   84.7972   11.6296 C.3     1  UNL1        0.1338
     23 C          63.5195   84.5979    8.6426 C.3     1  UNL1        0.0308
     24 C          62.5385   85.4390    9.4044 C.ar    1  UNL1       -0.0238
     25 C          61.4592   86.1804    8.6726 C.ar    1  UNL1       -0.0022
     26 C          60.4782   87.0214    9.4343 C.ar    1  UNL1        0.0293
     27 C          60.5764   87.1211   10.9278 C.ar    1  UNL1        0.1399
     28 F          59.5954   87.9622   11.6895 F       1  UNL1       -0.2042
     29 C          61.6557   86.3797   11.6595 C.ar    1  UNL1        0.0269
     30 C          62.6368   85.5386   10.8978 C.ar    1  UNL1       -0.0013
@<TRIPOS>BOND
     1    23    24    1
     2    24    25   ar
     3    25    26   ar
     4    26    27   ar
     5    27    28    1
     6    27    29   ar
     7    29    30   ar
     8    30    22    1
     9    22     1    1
    10     1     2   ar
    11     2    12    1
    12    12    13    1
    13    13    14    1
    14    14    15    1
    15    15    16    1
    16    16    17    1
    17    16    18    1
    18    16    19    1
    19     2     3   ar
    20     3     4   ar
    21     4     5   ar
    22     5     6   ar
    23     6     7   ar
    24     7     8    1
    25     7     9   ar
    26     9    10    2
    27     9    11   ar
    28    30    24   ar
    29    11     1   ar
    30    19    12    1
    31    11     4   ar
    32    18    20    1
    33    18    21    1
@<TRIPOS>MOLECULE
*****
 30 33 0 0 0
SMALL
GASTEIGER

@<TRIPOS>ATOM
      1 N          63.3126   86.0715   12.6033 N.ar    1  UNL1       -0.3068
      2 C          62.7763   84.7799   12.0611 C.ar    1  UNL1        0.1143
      3 C          61.8464   85.1028   10.9293 C.ar    1  UNL1        0.0533
      4 C          61.8080   86.5941   10.7721 C.ar    1  UNL1        0.1062
      5 N          61.0649   87.4841    9.8205 N.ar    1  UNL1       -0.2236
      6 C          61.2280   88.9729    9.9035 C.ar    1  UNL1        0.1809
      7 N          62.1342   89.5716   10.9381 N.ar    1  UNL1       -0.2750
      8 C          62.2973   91.0604   11.0210 C.3     1  UNL1        0.1352
      9 C          62.8773   88.6815   11.8897 C.ar    1  UNL1        0.2794
     10 O          63.7834   89.2802   12.9243 O.2     1  UNL1       -0.2653
     11 C          62.7141   87.1928   11.8067 C.ar    1  UNL1        0.1359
     12 N          63.1111   83.4064   12.5626 N.pl3   1  UNL1       -0.2932
     13 C          64.5078   82.8772   12.4242 C.3     1  UNL1        0.0922
     14 C          64.8426   81.5038   12.9257 C.3     1  UNL1        0.0228
     15 C          63.7808   80.6595   13.5656 C.3     1  UNL1        0.0177
     16 C          62.3841   81.1887   13.7041 C.3     1  UNL1        0.0575
     17 C          60.9281   81.2480   14.0596 C.3     1  UNL1        0.0173
     18 N          62.2132   79.8358   14.3291 N.3     1  UNL1       -0.3219
     19 C          62.0493   82.5621   13.2026 C.3     1  UNL1        0.1062
     20 H          63.1030   79.3376   14.3100 H       1  UNL1        0.1188
     21 H          61.5154   79.3058   13.8070 H       1  UNL1        0.1188
     22 C          64.2779   86.2165   13.7423 C.3     1  UNL1        0.1338
     23 C          63.3800   84.1848   15.7587 C.3     1  UNL1        0.0308
     24 C          63.3393   85.6456   16.0967 C.ar    1  UNL1       -0.0238
     25 C          62.8497   86.0906   17.4428 C.ar    1  UNL1       -0.0022
     26 C          62.8090   87.5515   17.7808 C.ar    1  UNL1        0.0293
     27 C          63.2579   88.5674   16.7726 C.ar    1  UNL1        0.1399
     28 F          63.2172   90.0282   17.1106 F       1  UNL1       -0.2042
     29 C          63.7475   88.1224   15.4265 C.ar    1  UNL1        0.0269
     30 C          63.7883   86.6614   15.0884 C.ar    1  UNL1       -0.0013
@<TRIPOS>BOND
     1    23    24    1
     2    24    25   ar
     3    25    26   ar
     4    26    27   ar
     5    27    28    1
     6    27    29   ar
     7    29    30   ar
     8    30    22    1
     9    22     1    1
    10     1     2   ar
    11     2    12    1
    12    12    13    1
    13    13    14    1
    14    14    15    1
    15    15    16    1
    16    16    17    1
    17    16    18    1
    18    16    19    1
    19     2     3   ar
    20     3     4   ar
    21     4     5   ar
    22     5     6   ar
    23     6     7   ar
    24     7     8    1
    25     7     9   ar
    26     9    10    2
    27     9    11   ar
    28    30    24   ar
    29    11     1   ar
    30    19    12    1
    31    11     4   ar
    32    18    20    1
    33    18    21    1
@<TRIPOS>MOLECULE
*****
 30 33 0 0 0
SMALL
GASTEIGER

@<TRIPOS>ATOM
      1 N          61.6959   87.7537   11.3703 N.ar    1  UNL1       -0.3068
      2 C          62.3476   86.4169   11.5659 C.ar    1  UNL1        0.1143
      3 C          62.1206   85.6047   10.3254 C.ar    1  UNL1        0.0533
      4 C          61.3285   86.4395    9.3632 C.ar    1  UNL1        0.1062
      5 N          60.8125   86.1618    7.9825 N.ar    1  UNL1       -0.2236
      6 C          60.0339   87.2123    7.2475 C.ar    1  UNL1        0.1809
      7 N          59.7714   88.5405    7.8932 N.ar    1  UNL1       -0.2750
      8 C          58.9928   89.5910    7.1582 C.3     1  UNL1        0.1352
      9 C          60.2875   88.8181    9.2740 C.ar    1  UNL1        0.2794
     10 O          60.0250   90.1463    9.9197 O.2     1  UNL1       -0.2653
     11 C          61.0661   87.7676   10.0090 C.ar    1  UNL1        0.1359
     12 N          63.0951   85.9707   12.7874 N.pl3   1  UNL1       -0.2932
     13 C          63.9655   86.9407   13.5301 C.3     1  UNL1        0.0922
     14 C          64.7130   86.4945   14.7516 C.3     1  UNL1        0.0228
     15 C          64.5900   85.0783   15.2305 C.3     1  UNL1        0.0177
     16 C          63.7196   84.1084   14.4879 C.3     1  UNL1        0.0575
     17 C          63.0250   82.8292   14.1258 C.3     1  UNL1        0.0173
     18 N          64.2258   83.2179   15.5837 N.3     1  UNL1       -0.3219
     19 C          62.9721   84.5546   13.2664 C.3     1  UNL1        0.1062
     20 H          64.8500   83.7481   16.1917 H       1  UNL1        0.1188
     21 H          64.7339   82.4328   15.1764 H       1  UNL1        0.1188
     22 C          61.6772   88.8790   12.3619 C.3     1  UNL1        0.1338
     23 C          63.0461   89.6916   14.9048 C.3     1  UNL1        0.0308
     24 C          63.4394   90.3282   13.6047 C.ar    1  UNL1       -0.0238
     25 C          64.5172   91.3710   13.5761 C.ar    1  UNL1       -0.0022
     26 C          64.9106   92.0076   12.2761 C.ar    1  UNL1        0.0293
     27 C          64.2262   91.6013   11.0047 C.ar    1  UNL1        0.1399
     28 F          64.6195   92.2378    9.7046 F       1  UNL1       -0.2042
     29 C          63.1484   90.5585   11.0333 C.ar    1  UNL1        0.0269
     30 C          62.7550   89.9218   12.3333 C.ar    1  UNL1       -0.0013
@<TRIPOS>BOND
     1    23    24    1
     2    24    25   ar
     3    25    26   ar
     4    26    27   ar
     5    27    28    1
     6    27    29   ar
     7    29    30   ar
     8    30    22    1
     9    22     1    1
    10     1     2   ar
    11     2    12    1
    12    12    13    1
    13    13    14    1
    14    14    15    1
    15    15    16    1
    16    16    17    1
    17    16    18    1
    18    16    19    1
    19     2     3   ar
    20     3     4   ar
    21     4     5   ar
    22     5     6   ar
    23     6     7   ar
    24     7     8    1
    25     7     9   ar
    26     9    10    2
    27     9    11   ar
    28    30    24   ar
    29    11     1   ar
    30    19    12    1
    31    11     4   ar
    32    18    20    1
    33    18    21    1
@<TRIPOS>MOLECULE
*****
 30 33 0 0 0
SMALL
GASTEIGER

@<TRIPOS>ATOM
      1 N          63.3518   84.9783   12.2125 N.ar    1  UNL1       -0.3068
      2 C          63.4731   85.8204   13.4479 C.ar    1  UNL1        0.1143
      3 C          63.3366   84.9186   14.6387 C.ar    1  UNL1        0.0533
      4 C          63.1310   83.5191   14.1393 C.ar    1  UNL1        0.1062
      5 N          62.9364   82.2161   14.8563 N.ar    1  UNL1       -0.2236
      6 C          62.7513   80.9499   14.0737 C.ar    1  UNL1        0.1809
      7 N          62.7607   80.9868   12.5742 N.ar    1  UNL1       -0.2750
      8 C          62.5755   79.7205   11.7916 C.3     1  UNL1        0.1352
      9 C          62.9553   82.2899   11.8572 C.ar    1  UNL1        0.2794
     10 O          62.9647   82.3268   10.3577 O.2     1  UNL1       -0.2653
     11 C          63.1404   83.5561   12.6398 C.ar    1  UNL1        0.1359
     12 N          63.6923   87.3038   13.4858 N.pl3   1  UNL1       -0.2932
     13 C          64.3792   87.9306   14.6628 C.3     1  UNL1        0.0922
     14 C          64.5985   89.4140   14.7007 C.3     1  UNL1        0.0228
     15 C          64.1308   90.2706   13.5616 C.3     1  UNL1        0.0177
     16 C          63.4440   89.6438   12.3846 C.3     1  UNL1        0.0575
     17 C          62.7495   89.5168   11.0612 C.3     1  UNL1        0.0173
     18 N          63.4220   91.0831   11.9628 N.3     1  UNL1       -0.3219
     19 C          63.2247   88.1604   12.3467 C.3     1  UNL1        0.1062
     20 H          63.8666   91.6547   12.6811 H       1  UNL1        0.1188
     21 H          62.4561   91.3858   11.8371 H       1  UNL1        0.1188
     22 C          63.4285   85.4718   10.7981 C.3     1  UNL1        0.1338
     23 C          62.9856   84.9190    7.8829 C.3     1  UNL1        0.0308
     24 C          61.9748   85.7111    8.6582 C.ar    1  UNL1       -0.0238
     25 C          60.7425   86.2267    7.9758 C.ar    1  UNL1       -0.0022
     26 C          59.7318   87.0188    8.7510 C.ar    1  UNL1        0.0293
     27 C          59.9532   87.2952   10.2087 C.ar    1  UNL1        0.1399
     28 F          58.9425   88.0872   10.9840 F       1  UNL1       -0.2042
     29 C          61.1855   86.7795   10.8910 C.ar    1  UNL1        0.0269
     30 C          62.1964   85.9874   10.1158 C.ar    1  UNL1       -0.0013
@<TRIPOS>BOND
     1    23    24    1
     2    24    25   ar
     3    25    26   ar
     4    26    27   ar
     5    27    28    1
     6    27    29   ar
     7    29    30   ar
     8    30    22    1
     9    22     1    1
    10     1     2   ar
    11     2    12    1
    12    12    13    1
    13    13    14    1
    14    14    15    1
    15    15    16    1
    16    16    17    1
    17    16    18    1
    18    16    19    1
    19     2     3   ar
    20     3     4   ar
    21     4     5   ar
    22     5     6   ar
    23     6     7   ar
    24     7     8    1
    25     7     9   ar
    26     9    10    2
    27     9    11   ar
    28    30    24   ar
    29    11     1   ar
    30    19    12    1
    31    11     4   ar
    32    18    20    1
    33    18    21    1
