@<TRIPOS>MOLECULE
*****
 36 39 0 0 0
SMALL
GASTEIGER

@<TRIPOS>ATOM
      1 C          66.0259   92.6871   13.8902 C.3     1  UNL1        0.1092
      2 C          66.4819   93.8229   13.0231 C.3     1  UNL1        0.1598
      3 O          65.9264   93.9793   11.6386 O.3     1  UNL1       -0.3507
      4 C          64.9150   93.0000   11.1212 C.3     1  UNL1        0.1636
      5 C          64.4590   91.8641   11.9883 C.3     1  UNL1        0.1527
      6 N          65.0144   91.7077   13.3728 N.3     1  UNL1       -0.1496
      7 C          65.4517   92.7758   16.2308 C.3     1  UNL1        0.0015
      8 C          66.5813   92.5306   15.2748 C.3     1  UNL1        0.0175
      9 C          67.5654   92.2795   16.3788 C.3     1  UNL1        0.0015
     10 C          68.0082   92.2038   14.9476 C.3     1  UNL1        0.0015
     11 S          64.5584   90.5718   14.2400 S.O2    1  UNL1        0.0635
     12 O          63.2974   91.2151   14.7357 O.2     1  UNL1       -0.1528
     13 O          65.7729   89.7842   13.8469 O.2     1  UNL1       -0.1528
     14 C          64.1024   89.4360   15.1071 C.ar    1  UNL1        0.1223
     15 C          64.4137   88.0218   14.7157 C.ar    1  UNL1        0.0208
     16 C          63.9577   86.8859   15.5829 C.ar    1  UNL1        0.0128
     17 C          63.1905   87.1643   16.8414 C.ar    1  UNL1        0.0578
     18 CL         62.7345   86.0285   17.7085 Cl      1  UNL1       -0.0822
     19 C          62.8792   88.5785   17.2328 C.ar    1  UNL1        0.0128
     20 C          63.3352   89.7143   16.3657 C.ar    1  UNL1        0.0208
     21 C          63.4475   90.8847   11.4708 C.3     1  UNL1        0.2302
     22 O          62.0483   90.8957   12.0111 O.3     1  UNL1       -0.4329
     23 C          60.9097   90.4276   11.1540 C.2     1  UNL1        0.4050
     24 O          59.6138   91.1830   11.1504 O.2     1  UNL1       -0.2262
     25 N          61.0670   89.2041   10.3006 N.am    1  UNL1       -0.2432
     26 C          62.3629   88.4487   10.3042 C.3     1  UNL1        0.1141
     27 C          62.5202   87.2252    9.4508 C.3     1  UNL1        0.0940
     28 N          61.3816   86.7571    8.5937 N.3     1  UNL1       -0.2699
     29 C          60.0857   87.5126    8.5901 C.3     1  UNL1        0.0940
     30 C          59.9284   88.7360    9.4435 C.3     1  UNL1        0.1141
     31 C          61.5389   85.5336    7.7403 C.3     1  UNL1        0.0726
     32 C          62.9494   85.3764    8.2257 C.3     1  UNL1        0.0186
     33 C          60.1283   85.6909    7.2550 C.3     1  UNL1        0.0186
     34 C          61.6961   84.3102    6.8869 C.3     1  UNL1        0.1516
     35 O          61.0224   84.2375    5.5487 O.3     1  UNL1       -0.3806
     36 H          60.0602   84.2273    5.6713 H       1  UNL1        0.2105
@<TRIPOS>BOND
     1     7     8    1
     2     1     8    1
     3     1     2    1
     4     2     3    1
     5     3     4    1
     6     4     5    1
     7     5    21    1
     8    21    22    1
     9    22    23    1
    10    23    24    2
    11    23    25   am
    12    25    26    1
    13    26    27    1
    14    27    28    1
    15    28    31    1
    16    31    32    1
    17    31    33    1
    18    31    34    1
    19    34    35    1
    20    28    29    1
    21    29    30    1
    22     5     6    1
    23     6    11    1
    24    11    12    2
    25    11    13    2
    26    11    14    1
    27    14    15   ar
    28    15    16   ar
    29    16    17   ar
    30    17    18    1
    31    17    19   ar
    32    19    20   ar
    33     8     9    1
    34     9    10    1
    35    10     8    1
    36     6     1    1
    37    20    14   ar
    38    30    25    1
    39    35    36    1
@<TRIPOS>MOLECULE
*****
 36 39 0 0 0
SMALL
GASTEIGER

@<TRIPOS>ATOM
      1 C          65.9137   92.3295   13.3930 C.3     1  UNL1        0.1092
      2 C          66.3254   93.3357   12.3595 C.3     1  UNL1        0.1598
      3 O          65.5931   93.4108   11.0526 O.3     1  UNL1       -0.3507
      4 C          64.4492   92.4799   10.7792 C.3     1  UNL1        0.1636
      5 C          64.0375   91.4737   11.8127 C.3     1  UNL1        0.1527
      6 N          64.7698   91.3986   13.1196 N.3     1  UNL1       -0.1496
      7 C          65.6977   92.7265   15.7619 C.3     1  UNL1        0.0015
      8 C          66.6461   92.2543   14.7000 C.3     1  UNL1        0.0175
      9 C          67.7500   92.0069   15.6850 C.3     1  UNL1        0.0015
     10 C          67.9703   91.7324   14.2268 C.3     1  UNL1        0.0015
     11 S          64.3582   90.3924   14.1533 S.O2    1  UNL1        0.0635
     12 O          65.4069   89.3673   13.8384 O.2     1  UNL1       -0.1528
     13 O          63.2510   91.3017   14.5974 O.2     1  UNL1       -0.1528
     14 C          63.9466   89.3863   15.1868 C.ar    1  UNL1        0.1223
     15 C          63.2377   89.8354   16.4301 C.ar    1  UNL1        0.0208
     16 C          62.8260   88.8292   17.4637 C.ar    1  UNL1        0.0128
     17 C          63.1233   87.3741   17.2540 C.ar    1  UNL1        0.0578
     18 CL         62.7117   86.3680   18.2876 Cl      1  UNL1       -0.0822
     19 C          63.8322   86.9250   16.0107 C.ar    1  UNL1        0.0128
     20 C          64.2439   87.9310   14.9771 C.ar    1  UNL1        0.0208
     21 C          62.8936   90.5428   11.5394 C.3     1  UNL1        0.2302
     22 O          63.0113   89.0881   11.8856 O.3     1  UNL1       -0.4329
     23 C          62.4821   88.0477   10.9435 C.2     1  UNL1        0.4050
     24 O          61.8602   88.4607    9.6425 O.2     1  UNL1       -0.2262
     25 N          62.5747   86.5941   11.3025 N.am    1  UNL1       -0.2432
     26 C          63.1965   86.1811   12.6036 C.3     1  UNL1        0.1141
     27 C          63.2892   84.7276   12.9626 C.3     1  UNL1        0.0940
     28 N          62.7599   83.6872   12.0205 N.3     1  UNL1       -0.2699
     29 C          62.1381   84.1003   10.7194 C.3     1  UNL1        0.0940
     30 C          62.0455   85.5538   10.3605 C.3     1  UNL1        0.1141
     31 C          62.8526   82.2338   12.3794 C.3     1  UNL1        0.0726
     32 C          62.3327   82.5398   13.7527 C.3     1  UNL1        0.0186
     33 C          63.3724   81.9277   11.0061 C.3     1  UNL1        0.0186
     34 C          62.9452   80.7803   12.7384 C.3     1  UNL1        0.1516
     35 O          63.1449   80.3720   14.1678 O.3     1  UNL1       -0.3806
     36 H          64.0172   80.6698   14.4703 H       1  UNL1        0.2105
@<TRIPOS>BOND
     1     7     8    1
     2     1     8    1
     3     1     2    1
     4     2     3    1
     5     3     4    1
     6     4     5    1
     7     5    21    1
     8    21    22    1
     9    22    23    1
    10    23    24    2
    11    23    25   am
    12    25    26    1
    13    26    27    1
    14    27    28    1
    15    28    31    1
    16    31    32    1
    17    31    33    1
    18    31    34    1
    19    34    35    1
    20    28    29    1
    21    29    30    1
    22     5     6    1
    23     6    11    1
    24    11    12    2
    25    11    13    2
    26    11    14    1
    27    14    15   ar
    28    15    16   ar
    29    16    17   ar
    30    17    18    1
    31    17    19   ar
    32    19    20   ar
    33     8     9    1
    34     9    10    1
    35    10     8    1
    36     6     1    1
    37    20    14   ar
    38    30    25    1
    39    35    36    1
@<TRIPOS>MOLECULE
*****
 36 39 0 0 0
SMALL
GASTEIGER

@<TRIPOS>ATOM
      1 C          63.4327   84.2219   14.0517 C.3     1  UNL1        0.1092
      2 C          63.8721   84.2872   15.4843 C.3     1  UNL1        0.1598
      3 O          64.2243   85.6084   16.1012 O.3     1  UNL1       -0.3507
      4 C          64.1370   86.8641   15.2854 C.3     1  UNL1        0.1636
      5 C          63.6976   86.7987   13.8528 C.3     1  UNL1        0.1527
      6 N          63.3455   85.4776   13.2359 N.3     1  UNL1       -0.1496
      7 C          64.2770   82.4502   12.6501 C.3     1  UNL1        0.0015
      8 C          63.0805   82.9007   13.4347 C.3     1  UNL1        0.0175
      9 C          62.2848   81.6822   13.0711 C.3     1  UNL1        0.0015
     10 C          61.6813   82.7375   13.9499 C.3     1  UNL1        0.0015
     11 S          62.9060   85.4122   11.8031 S.O2    1  UNL1        0.0635
     12 O          64.1735   84.8318   11.2495 O.2     1  UNL1       -0.1528
     13 O          61.5751   85.9888   12.1851 O.2     1  UNL1       -0.1528
     14 C          62.4666   85.3468   10.3705 C.ar    1  UNL1        0.1223
     15 C          61.2055   86.0359    9.9406 C.ar    1  UNL1        0.0208
     16 C          60.7661   85.9705    8.5078 C.ar    1  UNL1        0.0128
     17 C          61.5877   85.2159    7.5051 C.ar    1  UNL1        0.0578
     18 CL         61.1482   85.1505    6.0724 Cl      1  UNL1       -0.0822
     19 C          62.8487   84.5268    7.9350 C.ar    1  UNL1        0.0128
     20 C          63.2882   84.5922    9.3676 C.ar    1  UNL1        0.0208
     21 C          63.6104   88.0545   13.0370 C.3     1  UNL1        0.2302
     22 O          63.0689   89.3115   13.6507 O.3     1  UNL1       -0.4329
     23 C          64.0097   90.3596   14.1670 C.2     1  UNL1        0.4050
     24 O          64.3244   90.4289   15.6320 O.2     1  UNL1       -0.2262
     25 N          64.6357   91.3384   13.2183 N.am    1  UNL1       -0.2432
     26 C          64.3210   91.2691   11.7533 C.3     1  UNL1        0.1141
     27 C          64.9471   92.2479   10.8046 C.3     1  UNL1        0.0940
     28 N          65.8878   93.2960   11.3209 N.3     1  UNL1       -0.2699
     29 C          66.2025   93.3653   12.7859 C.3     1  UNL1        0.0940
     30 C          65.5764   92.3865   13.7346 C.3     1  UNL1        0.1141
     31 C          66.5138   94.2748   10.3722 C.3     1  UNL1        0.0726
     32 C          67.2868   93.1600    9.7321 C.3     1  UNL1        0.0186
     33 C          65.7408   95.3895   11.0122 C.3     1  UNL1        0.0186
     34 C          67.1398   95.2536    9.4235 C.3     1  UNL1        0.1516
     35 O          66.4781   95.5545    8.1114 O.3     1  UNL1       -0.3806
     36 H          66.4877   94.7601    7.5548 H       1  UNL1        0.2105
@<TRIPOS>BOND
     1     7     8    1
     2     1     8    1
     3     1     2    1
     4     2     3    1
     5     3     4    1
     6     4     5    1
     7     5    21    1
     8    21    22    1
     9    22    23    1
    10    23    24    2
    11    23    25   am
    12    25    26    1
    13    26    27    1
    14    27    28    1
    15    28    31    1
    16    31    32    1
    17    31    33    1
    18    31    34    1
    19    34    35    1
    20    28    29    1
    21    29    30    1
    22     5     6    1
    23     6    11    1
    24    11    12    2
    25    11    13    2
    26    11    14    1
    27    14    15   ar
    28    15    16   ar
    29    16    17   ar
    30    17    18    1
    31    17    19   ar
    32    19    20   ar
    33     8     9    1
    34     9    10    1
    35    10     8    1
    36     6     1    1
    37    20    14   ar
    38    30    25    1
    39    35    36    1
@<TRIPOS>MOLECULE
*****
 36 39 0 0 0
SMALL
GASTEIGER

@<TRIPOS>ATOM
      1 C          60.5980   87.9374    9.0494 C.3     1  UNL1        0.1092
      2 C          60.0545   89.2696    8.6253 C.3     1  UNL1        0.1598
      3 O          60.3668   90.4972    9.4287 O.3     1  UNL1       -0.3507
      4 C          61.2226   90.3926   10.6561 C.3     1  UNL1        0.1636
      5 C          61.7661   89.0604   11.0802 C.3     1  UNL1        0.1527
      6 N          61.4538   87.8328   10.2769 N.3     1  UNL1       -0.1496
      7 C          58.7995   86.5150    8.3025 C.3     1  UNL1        0.0015
      8 C          60.2857   86.7097    8.2460 C.3     1  UNL1        0.0175
      9 C          60.4912   85.4974    7.3869 C.3     1  UNL1        0.0015
     10 C          61.6680   86.3276    7.8065 C.3     1  UNL1        0.0015
     11 S          61.9973   86.5006   10.7009 S.O2    1  UNL1        0.0635
     12 O          63.1908   86.4924    9.7924 O.2     1  UNL1       -0.1528
     13 O          60.8616   86.3452   11.6683 O.2     1  UNL1       -0.1528
     14 C          62.5407   85.1684   11.1250 C.ar    1  UNL1        0.1223
     15 C          63.2491   84.2965   10.1311 C.ar    1  UNL1        0.0208
     16 C          63.7926   82.9642   10.5553 C.ar    1  UNL1        0.0128
     17 C          63.6276   82.5039   11.9733 C.ar    1  UNL1        0.0578
     18 CL         64.1710   81.1717   12.3974 Cl      1  UNL1       -0.0822
     19 C          62.9192   83.3758   12.9672 C.ar    1  UNL1        0.0128
     20 C          62.3758   84.7080   12.5431 C.ar    1  UNL1        0.0208
     21 C          62.6219   88.9558   12.3077 C.3     1  UNL1        0.2302
     22 O          62.5528   90.0195   13.3630 O.3     1  UNL1       -0.4329
     23 C          63.8105   90.6766   13.8492 C.2     1  UNL1        0.4050
     24 O          64.2352   90.5179   15.2790 O.2     1  UNL1       -0.2262
     25 N          64.6435   91.4924   12.9054 N.am    1  UNL1       -0.2432
     26 C          64.2188   91.6511   11.4756 C.3     1  UNL1        0.1141
     27 C          65.0518   92.4669   10.5319 C.3     1  UNL1        0.0940
     28 N          66.3095   93.1240   11.0180 N.3     1  UNL1       -0.2699
     29 C          66.7342   92.9653   12.4479 C.3     1  UNL1        0.0940
     30 C          65.9012   92.1495   13.3916 C.3     1  UNL1        0.1141
     31 C          67.1425   93.9398   10.0744 C.3     1  UNL1        0.0726
     32 C          67.8736   92.7011    9.6489 C.3     1  UNL1        0.0186
     33 C          66.4115   95.1785   10.4999 C.3     1  UNL1        0.0186
     34 C          67.9755   94.7556    9.1307 C.3     1  UNL1        0.1516
     35 O          67.7311   96.2295    8.9970 O.3     1  UNL1       -0.3806
     36 H          66.8544   96.3781    8.6095 H       1  UNL1        0.2105
@<TRIPOS>BOND
     1     7     8    1
     2     1     8    1
     3     1     2    1
     4     2     3    1
     5     3     4    1
     6     4     5    1
     7     5    21    1
     8    21    22    1
     9    22    23    1
    10    23    24    2
    11    23    25   am
    12    25    26    1
    13    26    27    1
    14    27    28    1
    15    28    31    1
    16    31    32    1
    17    31    33    1
    18    31    34    1
    19    34    35    1
    20    28    29    1
    21    29    30    1
    22     5     6    1
    23     6    11    1
    24    11    12    2
    25    11    13    2
    26    11    14    1
    27    14    15   ar
    28    15    16   ar
    29    16    17   ar
    30    17    18    1
    31    17    19   ar
    32    19    20   ar
    33     8     9    1
    34     9    10    1
    35    10     8    1
    36     6     1    1
    37    20    14   ar
    38    30    25    1
    39    35    36    1
@<TRIPOS>MOLECULE
*****
 36 39 0 0 0
SMALL
GASTEIGER

@<TRIPOS>ATOM
      1 C          63.8348   84.7506   12.9217 C.3     1  UNL1        0.1092
      2 C          64.7603   84.4464   14.0623 C.3     1  UNL1        0.1598
      3 O          65.1483   85.5310   15.0230 O.3     1  UNL1       -0.3507
      4 C          64.6109   86.9198   14.8431 C.3     1  UNL1        0.1636
      5 C          63.6855   87.2240   13.7025 C.3     1  UNL1        0.1527
      6 N          63.2974   86.1394   12.7418 N.3     1  UNL1       -0.1496
      7 C          62.3979   82.8347   12.6383 C.3     1  UNL1        0.0015
      8 C          63.4468   83.6659   11.9610 C.3     1  UNL1        0.0175
      9 C          63.4167   82.8306   10.7154 C.3     1  UNL1        0.0015
     10 C          64.3427   84.0071   10.8073 C.3     1  UNL1        0.0015
     11 S          62.3720   86.4436   11.6012 S.O2    1  UNL1        0.0635
     12 O          63.3701   87.1620   10.7425 O.2     1  UNL1       -0.1528
     13 O          61.2527   85.7570   12.3263 O.2     1  UNL1       -0.1528
     14 C          61.4465   86.7477   10.4606 C.ar    1  UNL1        0.1223
     15 C          61.4150   85.8488    9.2601 C.ar    1  UNL1        0.0208
     16 C          60.4895   86.1530    8.1195 C.ar    1  UNL1        0.0128
     17 C          59.5956   87.3560    8.1793 C.ar    1  UNL1        0.0578
     18 CL         58.6701   87.6602    7.0388 Cl      1  UNL1       -0.0822
     19 C          59.6271   88.2549    9.3798 C.ar    1  UNL1        0.0128
     20 C          60.5525   87.9508   10.5204 C.ar    1  UNL1        0.0208
     21 C          63.1481   88.6128   13.5226 C.3     1  UNL1        0.2302
     22 O          63.9408   89.6304   12.7571 O.3     1  UNL1       -0.4329
     23 C          64.6531   90.7302   13.4871 C.2     1  UNL1        0.4050
     24 O          64.8494   90.6407   14.9715 O.2     1  UNL1       -0.2262
     25 N          65.1692   91.9196   12.7327 N.am    1  UNL1       -0.2432
     26 C          64.9730   92.0092   11.2483 C.3     1  UNL1        0.1141
     27 C          65.4891   93.1985   10.4939 C.3     1  UNL1        0.0940
     28 N          66.2014   94.2983   11.2239 N.3     1  UNL1       -0.2699
     29 C          66.3977   94.2088   12.7084 C.3     1  UNL1        0.0940
     30 C          65.8816   93.0194   13.4627 C.3     1  UNL1        0.1141
     31 C          66.7175   95.4877   10.4696 C.3     1  UNL1        0.0726
     32 C          66.0296   96.4016   11.4398 C.3     1  UNL1        0.0186
     33 C          67.4054   94.5738    9.4993 C.3     1  UNL1        0.0186
     34 C          67.2336   96.6770    9.7152 C.3     1  UNL1        0.1516
     35 O          67.8565   96.4949    8.3629 O.3     1  UNL1       -0.3806
     36 H          68.6795   95.9892    8.4514 H       1  UNL1        0.2105
@<TRIPOS>BOND
     1     7     8    1
     2     1     8    1
     3     1     2    1
     4     2     3    1
     5     3     4    1
     6     4     5    1
     7     5    21    1
     8    21    22    1
     9    22    23    1
    10    23    24    2
    11    23    25   am
    12    25    26    1
    13    26    27    1
    14    27    28    1
    15    28    31    1
    16    31    32    1
    17    31    33    1
    18    31    34    1
    19    34    35    1
    20    28    29    1
    21    29    30    1
    22     5     6    1
    23     6    11    1
    24    11    12    2
    25    11    13    2
    26    11    14    1
    27    14    15   ar
    28    15    16   ar
    29    16    17   ar
    30    17    18    1
    31    17    19   ar
    32    19    20   ar
    33     8     9    1
    34     9    10    1
    35    10     8    1
    36     6     1    1
    37    20    14   ar
    38    30    25    1
    39    35    36    1
@<TRIPOS>MOLECULE
*****
 36 39 0 0 0
SMALL
GASTEIGER

@<TRIPOS>ATOM
      1 C          61.0572   87.2392    8.5560 C.3     1  UNL1        0.1092
      2 C          60.3539   88.1446    7.5887 C.3     1  UNL1        0.1598
      3 O          59.7154   89.4115    8.0757 O.3     1  UNL1       -0.3507
      4 C          59.7803   89.7730    9.5301 C.3     1  UNL1        0.1636
      5 C          60.4836   88.8677   10.4973 C.3     1  UNL1        0.1527
      6 N          61.1220   87.6008   10.0103 N.3     1  UNL1       -0.1496
      7 C          60.6159   85.1585    7.4195 C.3     1  UNL1        0.0015
      8 C          61.6957   85.9723    8.0689 C.3     1  UNL1        0.0175
      9 C          62.7487   84.9403    7.7926 C.3     1  UNL1        0.0015
     10 C          63.1108   86.2089    8.5066 C.3     1  UNL1        0.0015
     11 S          61.8254   86.6954   10.9776 S.O2    1  UNL1        0.0635
     12 O          63.0035   87.5864   11.2385 O.2     1  UNL1       -0.1528
     13 O          60.7248   85.6865   10.8335 O.2     1  UNL1       -0.1528
     14 C          62.5287   85.7900   11.9448 C.ar    1  UNL1        0.1223
     15 C          63.2886   86.3716   13.0999 C.ar    1  UNL1        0.0208
     16 C          63.9919   85.4662   14.0671 C.ar    1  UNL1        0.0128
     17 C          63.9353   83.9791   13.8793 C.ar    1  UNL1        0.0578
     18 CL         64.6385   83.0737   14.8465 Cl      1  UNL1       -0.0822
     19 C          63.1754   83.3974   12.7242 C.ar    1  UNL1        0.0128
     20 C          62.4721   84.3028   11.7570 C.ar    1  UNL1        0.0208
     21 C          60.5484   89.2293   11.9517 C.3     1  UNL1        0.2302
     22 O          61.8676   89.5601   12.5841 O.3     1  UNL1       -0.4329
     23 C          62.7606   90.5916   11.9607 C.2     1  UNL1        0.4050
     24 O          62.4142   91.1730   10.6221 O.2     1  UNL1       -0.2262
     25 N          64.0000   91.0416   12.6759 N.am    1  UNL1       -0.2432
     26 C          64.3464   90.4602   14.0145 C.3     1  UNL1        0.1141
     27 C          65.5858   90.9102   14.7297 C.3     1  UNL1        0.0940
     28 N          66.4788   91.9416   14.1062 N.3     1  UNL1       -0.2699
     29 C          66.1323   92.5230   12.7676 C.3     1  UNL1        0.0940
     30 C          64.8930   92.0730   12.0524 C.3     1  UNL1        0.1141
     31 C          67.7181   92.3916   14.8214 C.3     1  UNL1        0.0726
     32 C          68.5498   91.9655   13.6481 C.3     1  UNL1        0.0186
     33 C          66.8864   92.8177   15.9946 C.3     1  UNL1        0.0186
     34 C          68.9575   92.8416   15.5365 C.3     1  UNL1        0.1516
     35 O          69.0334   94.2272   16.1061 O.3     1  UNL1       -0.3806
     36 H          69.0184   94.8748   15.3842 H       1  UNL1        0.2105
@<TRIPOS>BOND
     1     7     8    1
     2     1     8    1
     3     1     2    1
     4     2     3    1
     5     3     4    1
     6     4     5    1
     7     5    21    1
     8    21    22    1
     9    22    23    1
    10    23    24    2
    11    23    25   am
    12    25    26    1
    13    26    27    1
    14    27    28    1
    15    28    31    1
    16    31    32    1
    17    31    33    1
    18    31    34    1
    19    34    35    1
    20    28    29    1
    21    29    30    1
    22     5     6    1
    23     6    11    1
    24    11    12    2
    25    11    13    2
    26    11    14    1
    27    14    15   ar
    28    15    16   ar
    29    16    17   ar
    30    17    18    1
    31    17    19   ar
    32    19    20   ar
    33     8     9    1
    34     9    10    1
    35    10     8    1
    36     6     1    1
    37    20    14   ar
    38    30    25    1
    39    35    36    1
@<TRIPOS>MOLECULE
*****
 36 39 0 0 0
SMALL
GASTEIGER

@<TRIPOS>ATOM
      1 C          63.6385   82.9977   13.1971 C.3     1  UNL1        0.1092
      2 C          64.3776   82.3900   14.3523 C.3     1  UNL1        0.1598
      3 O          64.9633   83.2717   15.4151 O.3     1  UNL1       -0.3507
      4 C          64.8098   84.7609   15.3228 C.3     1  UNL1        0.1636
      5 C          64.0707   85.3686   14.1676 C.3     1  UNL1        0.1527
      6 N          63.4850   84.4869   13.1048 N.3     1  UNL1       -0.1496
      7 C          61.7071   81.6715   12.6256 C.3     1  UNL1        0.0015
      8 C          63.0528   82.1160   12.1342 C.3     1  UNL1        0.0175
      9 C          62.9225   81.3544   10.8485 C.3     1  UNL1        0.0015
     10 C          64.1606   82.1554   11.1237 C.3     1  UNL1        0.0015
     11 S          62.7458   85.0946   11.9496 S.O2    1  UNL1        0.0635
     12 O          63.8388   84.9437   10.9335 O.2     1  UNL1       -0.1528
     13 O          61.5539   85.3212   12.8315 O.2     1  UNL1       -0.1528
     14 C          62.0067   85.7021   10.7944 C.ar    1  UNL1        0.1223
     15 C          60.9510   86.7387   11.0413 C.ar    1  UNL1        0.0208
     16 C          60.2118   87.3463    9.8861 C.ar    1  UNL1        0.0128
     17 C          60.5283   86.9173    8.4840 C.ar    1  UNL1        0.0578
     18 CL         59.7891   87.5249    7.3289 Cl      1  UNL1       -0.0822
     19 C          61.5840   85.8807    8.2372 C.ar    1  UNL1        0.0128
     20 C          62.3232   85.2731    9.3923 C.ar    1  UNL1        0.0208
     21 C          63.9172   86.8578   14.0753 C.3     1  UNL1        0.2302
     22 O          63.0170   87.5799   15.0335 O.3     1  UNL1       -0.4329
     23 C          63.5062   88.8084   15.7415 C.2     1  UNL1        0.4050
     24 O          63.4107   88.9012   17.2356 O.2     1  UNL1       -0.2262
     25 N          64.0911   89.9443   14.9554 N.am    1  UNL1       -0.2432
     26 C          64.1867   89.8515   13.4614 C.3     1  UNL1        0.1141
     27 C          64.7715   90.9873   12.6752 C.3     1  UNL1        0.0940
     28 N          65.2608   92.2159   13.3833 N.3     1  UNL1       -0.2699
     29 C          65.1652   92.3086   14.8774 C.3     1  UNL1        0.0940
     30 C          64.5803   91.1728   15.6634 C.3     1  UNL1        0.1141
     31 C          65.8456   93.3517   12.5972 C.3     1  UNL1        0.0726
     32 C          65.1706   92.8420   11.3585 C.3     1  UNL1        0.0186
     33 C          66.5206   93.8614   13.8360 C.3     1  UNL1        0.0186
     34 C          66.4304   94.4875   11.8112 C.3     1  UNL1        0.1516
     35 O          65.7632   95.8309   11.8247 O.3     1  UNL1       -0.3806
     36 H          64.8961   95.7656   11.3949 H       1  UNL1        0.2105
@<TRIPOS>BOND
     1     7     8    1
     2     1     8    1
     3     1     2    1
     4     2     3    1
     5     3     4    1
     6     4     5    1
     7     5    21    1
     8    21    22    1
     9    22    23    1
    10    23    24    2
    11    23    25   am
    12    25    26    1
    13    26    27    1
    14    27    28    1
    15    28    31    1
    16    31    32    1
    17    31    33    1
    18    31    34    1
    19    34    35    1
    20    28    29    1
    21    29    30    1
    22     5     6    1
    23     6    11    1
    24    11    12    2
    25    11    13    2
    26    11    14    1
    27    14    15   ar
    28    15    16   ar
    29    16    17   ar
    30    17    18    1
    31    17    19   ar
    32    19    20   ar
    33     8     9    1
    34     9    10    1
    35    10     8    1
    36     6     1    1
    37    20    14   ar
    38    30    25    1
    39    35    36    1
@<TRIPOS>MOLECULE
*****
 36 39 0 0 0
SMALL
GASTEIGER

@<TRIPOS>ATOM
      1 C          62.5374   93.8684    0.7485 C.3     1  UNL1        0.1092
      2 C          61.6613   93.2704    1.8090 C.3     1  UNL1        0.1598
      3 O          60.3380   92.6697    1.4379 O.3     1  UNL1       -0.3507
      4 C          59.8907   92.6668    0.0061 C.3     1  UNL1        0.1636
      5 C          60.7668   93.2648   -1.0545 C.3     1  UNL1        0.1527
      6 N          62.0902   93.8655   -0.6833 N.3     1  UNL1       -0.1496
      7 C          64.9048   93.4233    0.8626 C.3     1  UNL1        0.0015
      8 C          63.8608   94.4692    1.1196 C.3     1  UNL1        0.0175
      9 C          64.8694   95.4707    1.5992 C.3     1  UNL1        0.0015
     10 C          63.4138   95.8314    1.5605 C.3     1  UNL1        0.0015
     11 S          62.9664   94.4635   -1.7439 S.O2    1  UNL1        0.0635
     12 O          63.6900   93.2032   -2.1153 O.2     1  UNL1       -0.1528
     13 O          62.3448   95.8067   -1.5000 O.2     1  UNL1       -0.1528
     14 C          63.8425   95.0615   -2.8045 C.ar    1  UNL1        0.1223
     15 C          63.8201   94.5052   -4.1973 C.ar    1  UNL1        0.0208
     16 C          64.6963   95.1033   -5.2579 C.ar    1  UNL1        0.0128
     17 C          65.5948   96.2575   -4.9256 C.ar    1  UNL1        0.0578
     18 CL         66.4709   96.8555   -5.9861 Cl      1  UNL1       -0.0822
     19 C          65.6171   96.8138   -3.5327 C.ar    1  UNL1        0.0128
     20 C          64.7410   96.2158   -2.4722 C.ar    1  UNL1        0.0208
     21 C          60.3196   93.2619   -2.4863 C.3     1  UNL1        0.2302
     22 O          59.1990   94.1579   -2.9238 O.3     1  UNL1       -0.4329
     23 C          58.6007   93.9981   -4.2899 C.2     1  UNL1        0.4050
     24 O          59.0444   94.8890   -5.4120 O.2     1  UNL1       -0.2262
     25 N          57.5584   92.9472   -4.5340 N.am    1  UNL1       -0.2432
     26 C          57.1147   92.0562   -3.4119 C.3     1  UNL1        0.1141
     27 C          56.0724   91.0053   -3.6559 C.3     1  UNL1        0.0940
     28 N          55.4741   90.8454   -5.0221 N.3     1  UNL1       -0.2699
     29 C          55.9179   91.7365   -6.1442 C.3     1  UNL1        0.0940
     30 C          56.9601   92.7873   -5.9001 C.3     1  UNL1        0.1141
     31 C          54.4319   89.7946   -5.2661 C.3     1  UNL1        0.0726
     32 C          54.5340   89.3607   -3.8339 C.3     1  UNL1        0.0186
     33 C          54.3298   90.2285   -6.6983 C.3     1  UNL1        0.0186
     34 C          53.3897   88.7438   -5.5102 C.3     1  UNL1        0.1516
     35 O          51.9474   89.1342   -5.6420 O.3     1  UNL1       -0.3806
     36 H          51.6289   89.4853   -4.7957 H       1  UNL1        0.2105
@<TRIPOS>BOND
     1     7     8    1
     2     1     8    1
     3     1     2    1
     4     2     3    1
     5     3     4    1
     6     4     5    1
     7     5    21    1
     8    21    22    1
     9    22    23    1
    10    23    24    2
    11    23    25   am
    12    25    26    1
    13    26    27    1
    14    27    28    1
    15    28    31    1
    16    31    32    1
    17    31    33    1
    18    31    34    1
    19    34    35    1
    20    28    29    1
    21    29    30    1
    22     5     6    1
    23     6    11    1
    24    11    12    2
    25    11    13    2
    26    11    14    1
    27    14    15   ar
    28    15    16   ar
    29    16    17   ar
    30    17    18    1
    31    17    19   ar
    32    19    20   ar
    33     8     9    1
    34     9    10    1
    35    10     8    1
    36     6     1    1
    37    20    14   ar
    38    30    25    1
    39    35    36    1
@<TRIPOS>MOLECULE
*****
 36 39 0 0 0
SMALL
GASTEIGER

@<TRIPOS>ATOM
      1 C          63.2213   82.0243   12.0669 C.3     1  UNL1        0.1092
      2 C          63.3169   81.3357   10.7378 C.3     1  UNL1        0.1598
      3 O          63.4385   82.1452    9.4808 O.3     1  UNL1       -0.3507
      4 C          63.4645   83.6432    9.5530 C.3     1  UNL1        0.1636
      5 C          63.3689   84.3318   10.8822 C.3     1  UNL1        0.1527
      6 N          63.2473   83.5224   12.1391 N.3     1  UNL1       -0.1496
      7 C          64.4892   81.0130   13.8518 C.3     1  UNL1        0.0015
      8 C          63.0997   81.2149   13.3240 C.3     1  UNL1        0.0175
      9 C          62.4757   80.4418   14.4478 C.3     1  UNL1        0.0015
     10 C          61.6111   81.0385   13.3771 C.3     1  UNL1        0.0015
     11 S          63.1517   84.2109   13.4684 S.O2    1  UNL1        0.0635
     12 O          61.6564   84.3203   13.5105 O.2     1  UNL1       -0.1528
     13 O          64.6466   84.1853   13.5891 O.2     1  UNL1       -0.1528
     14 C          63.0562   84.8995   14.7975 C.ar    1  UNL1        0.1223
     15 C          64.2311   85.6632   15.3328 C.ar    1  UNL1        0.0208
     16 C          64.1355   86.3517   16.6620 C.ar    1  UNL1        0.0128
     17 C          62.8651   86.2766   17.4560 C.ar    1  UNL1        0.0578
     18 CL         62.7696   86.9651   18.7851 Cl      1  UNL1       -0.0822
     19 C          61.6902   85.5129   16.9207 C.ar    1  UNL1        0.0128
     20 C          61.7858   84.8243   15.5916 C.ar    1  UNL1        0.0208
     21 C          63.3949   85.8298   10.9544 C.3     1  UNL1        0.2302
     22 O          62.1146   86.6070   10.8723 O.3     1  UNL1       -0.4329
     23 C          62.1512   88.0989   10.7209 C.2     1  UNL1        0.4050
     24 O          61.4968   88.7490    9.5381 O.2     1  UNL1       -0.2262
     25 N          62.8424   88.9407   11.7524 N.am    1  UNL1       -0.2432
     26 C          63.4968   88.2906   12.9351 C.3     1  UNL1        0.1141
     27 C          64.1879   89.1323   13.9666 C.3     1  UNL1        0.0940
     28 N          64.2246   90.6242   13.8152 N.3     1  UNL1       -0.2699
     29 C          63.5701   91.2743   12.6323 C.3     1  UNL1        0.0940
     30 C          62.8790   90.4326   11.6010 C.3     1  UNL1        0.1141
     31 C          64.9156   91.4660   14.8466 C.3     1  UNL1        0.0726
     32 C          63.9388   90.9972   15.8838 C.3     1  UNL1        0.0186
     33 C          65.8925   91.9349   13.8094 C.3     1  UNL1        0.0186
     34 C          65.6067   92.3078   15.8780 C.3     1  UNL1        0.1516
     35 O          64.8386   92.8339   17.0540 O.3     1  UNL1       -0.3806
     36 H          64.1718   93.4680   16.7472 H       1  UNL1        0.2105
@<TRIPOS>BOND
     1     7     8    1
     2     1     8    1
     3     1     2    1
     4     2     3    1
     5     3     4    1
     6     4     5    1
     7     5    21    1
     8    21    22    1
     9    22    23    1
    10    23    24    2
    11    23    25   am
    12    25    26    1
    13    26    27    1
    14    27    28    1
    15    28    31    1
    16    31    32    1
    17    31    33    1
    18    31    34    1
    19    34    35    1
    20    28    29    1
    21    29    30    1
    22     5     6    1
    23     6    11    1
    24    11    12    2
    25    11    13    2
    26    11    14    1
    27    14    15   ar
    28    15    16   ar
    29    16    17   ar
    30    17    18    1
    31    17    19   ar
    32    19    20   ar
    33     8     9    1
    34     9    10    1
    35    10     8    1
    36     6     1    1
    37    20    14   ar
    38    30    25    1
    39    35    36    1
