@<TRIPOS>MOLECULE
*****
 38 41 0 0 0
SMALL
GASTEIGER

@<TRIPOS>ATOM
      1 C          64.0105   86.4478   15.6322 C.ar    1  UNL1        0.0611
      2 C          63.2637   86.0720   16.8776 C.ar    1  UNL1        0.1037
      3 N          62.7764   87.3346   17.5245 N.ar    1  UNL1       -0.2269
      4 C          63.2221   88.4906   16.6790 C.ar    1  UNL1        0.1407
      5 N          63.0319   89.9715   16.8228 N.ar    1  UNL1       -0.3374
      6 C          63.6045   90.9043   15.7972 C.ar    1  UNL1        0.0734
      7 C          64.3673   90.3562   14.6277 C.ar    1  UNL1        0.0171
      8 C          64.5574   88.8753   14.4838 C.ar    1  UNL1        0.0046
      9 C          63.9848   87.9425   15.5094 C.ar    1  UNL1        0.0386
     10 H          62.5313   90.3313   17.5904 H       1  UNL1        0.1674
     11 C          64.9399   91.2891   13.6020 C.ar    1  UNL1        0.0015
     12 C          64.2933   91.4097   12.2539 C.ar    1  UNL1        0.0014
     13 C          64.8659   92.3426   11.2282 C.ar    1  UNL1        0.0183
     14 C          66.0851   93.1548   11.5507 C.ar    1  UNL1        0.1057
     15 C          66.7316   93.0341   12.8989 C.ar    1  UNL1        0.0183
     16 C          66.1590   92.1013   13.9245 C.ar    1  UNL1        0.0014
     17 S          66.6577   94.0876   10.5251 S.O2    1  UNL1        0.0104
     18 C          67.2303   95.0205    9.4995 C.3     1  UNL1        0.1816
     19 O          67.8548   93.1953   10.3818 O.2     1  UNL1       -0.1686
     20 O          65.4606   94.9800   10.6684 O.2     1  UNL1       -0.1686
     21 C          64.6677   85.4959   14.6772 C.2     1  UNL1        0.2015
     22 O          66.1446   85.2483   14.7622 O.2     1  UNL1       -0.2864
     23 C          62.4533   84.8584   11.4461 C.ar    1  UNL1        0.0920
     24 C          62.2082   83.3827   11.5570 C.ar    1  UNL1        0.0204
     25 C          62.7830   82.6114   12.7080 C.ar    1  UNL1        0.0312
     26 C          63.6028   83.3157   13.7481 C.ar    1  UNL1        0.1454
     27 F          64.1776   82.5445   14.8991 F       1  UNL1       -0.2040
     28 C          63.8478   84.7914   13.6371 C.ar    1  UNL1        0.0951
     29 C          63.2731   85.5627   12.4862 C.ar    1  UNL1        0.1598
     30 F          63.5182   87.0384   12.3753 F       1  UNL1       -0.2026
     31 N          61.8785   85.6296   10.2951 N.pl3   1  UNL1       -0.2166
     32 H          61.6908   85.1747    9.4425 H       1  UNL1        0.1734
     33 S          61.5897   87.0941   10.4433 S.O2    1  UNL1        0.0540
     34 O          60.6105   86.7902   11.5381 O.2     1  UNL1       -0.1545
     35 O          62.5689   87.3980    9.3484 O.2     1  UNL1       -0.1545
     36 C          61.3010   88.5585   10.5913 C.3     1  UNL1        0.1724
     37 C          59.6773   90.4728   11.2620 C.3     1  UNL1        0.0019
     38 C          60.0018   89.0101   11.1899 C.3     1  UNL1        0.0273
@<TRIPOS>BOND
     1    37    38    1
     2    38    36    1
     3    36    33    1
     4    33    34    2
     5    33    35    2
     6    33    31    1
     7    31    23    1
     8    23    24   ar
     9    24    25   ar
    10    25    26   ar
    11    26    27    1
    12    26    28   ar
    13    28    21    1
    14    21    22    2
    15    21     1    1
    16     1     2   ar
    17     2     3   ar
    18     3     4   ar
    19     4     5   ar
    20     5     6   ar
    21     6     7   ar
    22     7    11    1
    23    11    12   ar
    24    12    13   ar
    25    13    14   ar
    26    14    17    1
    27    17    18    1
    28    17    19    2
    29    17    20    2
    30    14    15   ar
    31    15    16   ar
    32     7     8   ar
    33     8     9   ar
    34    28    29   ar
    35    29    30    1
    36    29    23   ar
    37     9     1   ar
    38     9     4    1
    39    16    11   ar
    40    31    32    1
    41     5    10    1
@<TRIPOS>MOLECULE
*****
 38 41 0 0 0
SMALL
GASTEIGER

@<TRIPOS>ATOM
      1 C          63.9300   86.4032   15.5877 C.ar    1  UNL1        0.0611
      2 C          63.2001   86.0280   16.8433 C.ar    1  UNL1        0.1037
      3 N          62.7705   87.2930   17.5254 N.ar    1  UNL1       -0.2269
      4 C          63.2349   88.4501   16.6914 C.ar    1  UNL1        0.1407
      5 N          63.0979   89.9333   16.8677 N.ar    1  UNL1       -0.3374
      6 C          63.6774   90.8667   15.8465 C.ar    1  UNL1        0.0734
      7 C          64.3940   90.3168   14.6489 C.ar    1  UNL1        0.0171
      8 C          64.5310   88.8335   14.4726 C.ar    1  UNL1        0.0046
      9 C          63.9515   87.9002   15.4938 C.ar    1  UNL1        0.0386
     10 H          62.6276   90.2942   17.6537 H       1  UNL1        0.1674
     11 C          64.9736   91.2502   13.6277 C.ar    1  UNL1        0.0015
     12 C          64.2491   91.4930   12.3369 C.ar    1  UNL1        0.0014
     13 C          64.8287   92.4264   11.3156 C.ar    1  UNL1        0.0183
     14 C          66.1327   93.1171   11.5853 C.ar    1  UNL1        0.1057
     15 C          66.8571   92.8742   12.8762 C.ar    1  UNL1        0.0183
     16 C          66.2775   91.9408   13.8973 C.ar    1  UNL1        0.0014
     17 S          66.7122   94.0505   10.5641 S.O2    1  UNL1        0.0104
     18 C          67.2918   94.9839    9.5429 C.3     1  UNL1        0.1816
     19 O          67.9661   93.2282   10.5242 O.2     1  UNL1       -0.1686
     20 O          65.4583   94.8727   10.6040 O.2     1  UNL1       -0.1686
     21 C          64.5325   85.4491   14.5995 C.2     1  UNL1        0.2015
     22 O          65.9389   84.9630   14.7880 O.2     1  UNL1       -0.2864
     23 C          62.4299   85.5038   11.2340 C.ar    1  UNL1        0.0920
     24 C          62.1208   84.0452   11.0692 C.ar    1  UNL1        0.0204
     25 C          62.6157   83.0547   12.0811 C.ar    1  UNL1        0.0312
     26 C          63.4195   83.5226   13.2579 C.ar    1  UNL1        0.1454
     27 F          63.9143   82.5320   14.2698 F       1  UNL1       -0.2040
     28 C          63.7286   84.9811   13.4227 C.ar    1  UNL1        0.0951
     29 C          63.2338   85.9717   12.4108 C.ar    1  UNL1        0.1598
     30 F          63.5429   87.4302   12.5757 F       1  UNL1       -0.2026
     31 N          61.9351   86.4943   10.2221 N.pl3   1  UNL1       -0.2166
     32 H          61.8375   87.4425   10.4684 H       1  UNL1        0.1734
     33 S          61.5889   86.0401    8.8351 S.O2    1  UNL1        0.0540
     34 O          60.1450   86.3547    9.0924 O.2     1  UNL1       -0.1545
     35 O          63.0328   85.7256    8.5778 O.2     1  UNL1       -0.1545
     36 C          61.2429   85.5860    7.4481 C.3     1  UNL1        0.1724
     37 C          61.7928   84.0724    5.4091 C.3     1  UNL1        0.0019
     38 C          62.2331   84.7901    6.6505 C.3     1  UNL1        0.0273
@<TRIPOS>BOND
     1    37    38    1
     2    38    36    1
     3    36    33    1
     4    33    34    2
     5    33    35    2
     6    33    31    1
     7    31    23    1
     8    23    24   ar
     9    24    25   ar
    10    25    26   ar
    11    26    27    1
    12    26    28   ar
    13    28    21    1
    14    21    22    2
    15    21     1    1
    16     1     2   ar
    17     2     3   ar
    18     3     4   ar
    19     4     5   ar
    20     5     6   ar
    21     6     7   ar
    22     7    11    1
    23    11    12   ar
    24    12    13   ar
    25    13    14   ar
    26    14    17    1
    27    17    18    1
    28    17    19    2
    29    17    20    2
    30    14    15   ar
    31    15    16   ar
    32     7     8   ar
    33     8     9   ar
    34    28    29   ar
    35    29    30    1
    36    29    23   ar
    37     9     1   ar
    38     9     4    1
    39    16    11   ar
    40    31    32    1
    41     5    10    1
@<TRIPOS>MOLECULE
*****
 38 41 0 0 0
SMALL
GASTEIGER

@<TRIPOS>ATOM
      1 C          61.5761   86.3761    9.3169 C.ar    1  UNL1        0.0611
      2 C          60.2249   86.1989    8.6901 C.ar    1  UNL1        0.1037
      3 N          59.4239   87.4387    8.9572 N.ar    1  UNL1       -0.2269
      4 C          60.2801   88.3821    9.7491 C.ar    1  UNL1        0.1407
      5 N          60.0203   89.7543   10.2964 N.ar    1  UNL1       -0.3374
      6 C          61.0907   90.4697   11.0661 C.ar    1  UNL1        0.0734
      7 C          62.4208   89.8129   11.2884 C.ar    1  UNL1        0.0171
      8 C          62.6806   88.4408   10.7410 C.ar    1  UNL1        0.0046
      9 C          61.6102   87.7253    9.9714 C.ar    1  UNL1        0.0386
     10 H          59.1473   90.1853   10.1505 H       1  UNL1        0.1674
     11 C          63.4912   90.5284   12.0581 C.ar    1  UNL1        0.0015
     12 C          63.8382   90.0858   13.4487 C.ar    1  UNL1        0.0014
     13 C          64.9086   90.8013   14.2184 C.ar    1  UNL1        0.0183
     14 C          65.6320   91.9594   13.5975 C.ar    1  UNL1        0.1057
     15 C          65.2850   92.4020   12.2068 C.ar    1  UNL1        0.0183
     16 C          64.2146   91.6865   11.4372 C.ar    1  UNL1        0.0014
     17 S          66.7023   92.6748   14.3671 S.O2    1  UNL1        0.0104
     18 C          67.7727   93.3903   15.1367 C.3     1  UNL1        0.1816
     19 O          67.6345   92.5356   13.2002 O.2     1  UNL1       -0.1686
     20 O          65.7702   92.8140   15.5340 O.2     1  UNL1       -0.1686
     21 C          62.6965   85.3790    9.2933 C.2     1  UNL1        0.2015
     22 O          63.4898   85.1718    8.0374 O.2     1  UNL1       -0.2864
     23 C          62.6971   84.1422   13.0644 C.ar    1  UNL1        0.0920
     24 C          63.6777   83.0095   12.9910 C.ar    1  UNL1        0.0204
     25 C          64.3313   82.6667   11.6851 C.ar    1  UNL1        0.0312
     26 C          64.0042   83.4565   10.4526 C.ar    1  UNL1        0.1454
     27 F          64.6578   83.1136    9.1467 F       1  UNL1       -0.2040
     28 C          63.0236   84.5892   10.5259 C.ar    1  UNL1        0.0951
     29 C          62.3701   84.9320   11.8318 C.ar    1  UNL1        0.1598
     30 F          61.3894   86.0647   11.9051 F       1  UNL1       -0.2026
     31 N          62.0436   84.4850   14.3703 N.pl3   1  UNL1       -0.2166
     32 H          61.1019   84.2446   14.5275 H       1  UNL1        0.1734
     33 S          62.8248   85.1941   15.4365 S.O2    1  UNL1        0.0540
     34 O          63.5077   86.0200   14.3869 O.2     1  UNL1       -0.1545
     35 O          62.1418   84.3683   16.4861 O.2     1  UNL1       -0.1545
     36 C          63.6059   85.9032   16.5028 C.3     1  UNL1        0.1724
     37 C          63.0707   88.3929   17.0180 C.3     1  UNL1        0.0019
     38 C          62.9380   86.9382   17.3589 C.3     1  UNL1        0.0273
@<TRIPOS>BOND
     1    37    38    1
     2    38    36    1
     3    36    33    1
     4    33    34    2
     5    33    35    2
     6    33    31    1
     7    31    23    1
     8    23    24   ar
     9    24    25   ar
    10    25    26   ar
    11    26    27    1
    12    26    28   ar
    13    28    21    1
    14    21    22    2
    15    21     1    1
    16     1     2   ar
    17     2     3   ar
    18     3     4   ar
    19     4     5   ar
    20     5     6   ar
    21     6     7   ar
    22     7    11    1
    23    11    12   ar
    24    12    13   ar
    25    13    14   ar
    26    14    17    1
    27    17    18    1
    28    17    19    2
    29    17    20    2
    30    14    15   ar
    31    15    16   ar
    32     7     8   ar
    33     8     9   ar
    34    28    29   ar
    35    29    30    1
    36    29    23   ar
    37     9     1   ar
    38     9     4    1
    39    16    11   ar
    40    31    32    1
    41     5    10    1
@<TRIPOS>MOLECULE
*****
 38 41 0 0 0
SMALL
GASTEIGER

@<TRIPOS>ATOM
      1 C          64.1370   86.6592   15.6679 C.ar    1  UNL1        0.0611
      2 C          63.3522   86.2436   16.8768 C.ar    1  UNL1        0.1037
      3 N          62.7652   87.4778   17.4951 N.ar    1  UNL1       -0.2269
      4 C          63.1872   88.6561   16.6683 C.ar    1  UNL1        0.1407
      5 N          62.9090   90.1243   16.7979 N.ar    1  UNL1       -0.3374
      6 C          63.4786   91.0866   15.7982 C.ar    1  UNL1        0.0734
      7 C          64.3264   90.5807   14.6689 C.ar    1  UNL1        0.0171
      8 C          64.6046   89.1125   14.5394 C.ar    1  UNL1        0.0046
      9 C          64.0350   88.1502   15.5391 C.ar    1  UNL1        0.0386
     10 H          62.3525   90.4564   17.5390 H       1  UNL1        0.1674
     11 C          64.8960   91.5431   13.6692 C.ar    1  UNL1        0.0015
     12 C          65.9306   92.5422   14.0951 C.ar    1  UNL1        0.0014
     13 C          66.5002   93.5046   13.0954 C.ar    1  UNL1        0.0183
     14 C          66.0352   93.4679   11.6697 C.ar    1  UNL1        0.1057
     15 C          65.0006   92.4687   11.2438 C.ar    1  UNL1        0.0183
     16 C          64.4310   91.5064   12.2436 C.ar    1  UNL1        0.0014
     17 S          66.6048   94.4302   10.6700 S.O2    1  UNL1        0.0104
     18 C          67.1743   95.3925    9.6703 C.3     1  UNL1        0.1816
     19 O          66.9754   93.2833    9.7772 O.2     1  UNL1       -0.1686
     20 O          66.2342   95.5771   11.5629 O.2     1  UNL1       -0.1686
     21 C          64.8914   85.7444   14.7492 C.2     1  UNL1        0.2015
     22 O          66.3862   85.6584   14.8376 O.2     1  UNL1       -0.2864
     23 C          63.4280   82.5902   12.8360 C.ar    1  UNL1        0.0920
     24 C          62.6697   83.2579   11.7273 C.ar    1  UNL1        0.0204
     25 C          62.6518   84.7543   11.6260 C.ar    1  UNL1        0.0312
     26 C          63.3924   85.5832   12.6332 C.ar    1  UNL1        0.1454
     27 F          63.3745   87.0796   12.5318 F       1  UNL1       -0.2040
     28 C          64.1508   84.9155   13.7418 C.ar    1  UNL1        0.0951
     29 C          64.1686   83.4191   13.8432 C.ar    1  UNL1        0.1598
     30 F          64.9270   82.7515   14.9519 F       1  UNL1       -0.2026
     31 N          63.4459   81.0938   12.9374 N.pl3   1  UNL1       -0.2166
     32 H          64.2489   80.5917   12.6683 H       1  UNL1        0.1734
     33 S          62.2403   80.3623   13.4486 S.O2    1  UNL1        0.0540
     34 O          62.4089   79.3317   12.3719 O.2     1  UNL1       -0.1545
     35 O          62.0716   81.3929   14.5254 O.2     1  UNL1       -0.1545
     36 C          61.0346   79.6309   13.9599 C.3     1  UNL1        0.1724
     37 C          58.5194   79.6326   14.6110 C.3     1  UNL1        0.0019
     38 C          59.7659   80.3803   14.2405 C.3     1  UNL1        0.0273
@<TRIPOS>BOND
     1    37    38    1
     2    38    36    1
     3    36    33    1
     4    33    34    2
     5    33    35    2
     6    33    31    1
     7    31    23    1
     8    23    24   ar
     9    24    25   ar
    10    25    26   ar
    11    26    27    1
    12    26    28   ar
    13    28    21    1
    14    21    22    2
    15    21     1    1
    16     1     2   ar
    17     2     3   ar
    18     3     4   ar
    19     4     5   ar
    20     5     6   ar
    21     6     7   ar
    22     7    11    1
    23    11    12   ar
    24    12    13   ar
    25    13    14   ar
    26    14    17    1
    27    17    18    1
    28    17    19    2
    29    17    20    2
    30    14    15   ar
    31    15    16   ar
    32     7     8   ar
    33     8     9   ar
    34    28    29   ar
    35    29    30    1
    36    29    23   ar
    37     9     1   ar
    38     9     4    1
    39    16    11   ar
    40    31    32    1
    41     5    10    1
@<TRIPOS>MOLECULE
*****
 38 41 0 0 0
SMALL
GASTEIGER

@<TRIPOS>ATOM
      1 C          63.3925   84.2329   14.1096 C.ar    1  UNL1        0.0611
      2 C          62.8454   83.3907   15.2237 C.ar    1  UNL1        0.1037
      3 N          62.6009   84.2844   16.4033 N.ar    1  UNL1       -0.2269
      4 C          62.9969   85.6790   16.0182 C.ar    1  UNL1        0.1407
      5 N          62.9753   86.9738   16.7752 N.ar    1  UNL1       -0.3374
      6 C          63.4429   88.2366   16.1146 C.ar    1  UNL1        0.0734
      7 C          63.9321   88.2048   14.6970 C.ar    1  UNL1        0.0171
      8 C          63.9538   86.9101   13.9400 C.ar    1  UNL1        0.0046
      9 C          63.4862   85.6472   14.6006 C.ar    1  UNL1        0.0386
     10 H          62.6542   86.9947   17.7057 H       1  UNL1        0.1674
     11 C          64.3998   89.4678   14.0365 C.ar    1  UNL1        0.0015
     12 C          63.7560   89.9310   12.7633 C.ar    1  UNL1        0.0014
     13 C          64.2236   91.1940   12.1027 C.ar    1  UNL1        0.0183
     14 C          65.3350   91.9937   12.7154 C.ar    1  UNL1        0.1057
     15 C          65.9788   91.5304   13.9886 C.ar    1  UNL1        0.0183
     16 C          65.5111   90.2675   14.6491 C.ar    1  UNL1        0.0014
     17 S          65.8026   93.2566   12.0549 S.O2    1  UNL1        0.0104
     18 C          66.2702   94.5195   11.3944 C.3     1  UNL1        0.1816
     19 O          66.3906   93.7189   13.3551 O.2     1  UNL1       -0.1686
     20 O          65.2146   92.7943   10.7547 O.2     1  UNL1       -0.1686
     21 C          63.7783   83.7463   12.7442 C.2     1  UNL1        0.2015
     22 O          64.7136   82.5827   12.5991 O.2     1  UNL1       -0.2864
     23 C          61.5093   86.0316   10.4248 C.ar    1  UNL1        0.0920
     24 C          62.1295   85.7776    9.0828 C.ar    1  UNL1        0.0204
     25 C          63.2992   84.8465    8.9613 C.ar    1  UNL1        0.0312
     26 C          63.8489   84.1694   10.1817 C.ar    1  UNL1        0.1454
     27 F          65.0186   83.2384   10.0602 F       1  UNL1       -0.2040
     28 C          63.2287   84.4234   11.5236 C.ar    1  UNL1        0.0951
     29 C          62.0589   85.3545   11.6452 C.ar    1  UNL1        0.1598
     30 F          61.4388   85.6084   12.9872 F       1  UNL1       -0.2026
     31 N          60.3395   86.9627   10.5463 N.pl3   1  UNL1       -0.2166
     32 H          59.7039   86.8599   11.2910 H       1  UNL1        0.1734
     33 S          60.1383   88.0503    9.5331 S.O2    1  UNL1        0.0540
     34 O          61.1103   88.9201   10.2737 O.2     1  UNL1       -0.1545
     35 O          59.1662   87.1804    8.7925 O.2     1  UNL1       -0.1545
     36 C          59.9369   89.1378    8.5198 C.3     1  UNL1        0.1724
     37 C          59.2807   89.8569    6.1110 C.3     1  UNL1        0.0019
     38 C          59.3035   88.8226    7.1971 C.3     1  UNL1        0.0273
@<TRIPOS>BOND
     1    37    38    1
     2    38    36    1
     3    36    33    1
     4    33    34    2
     5    33    35    2
     6    33    31    1
     7    31    23    1
     8    23    24   ar
     9    24    25   ar
    10    25    26   ar
    11    26    27    1
    12    26    28   ar
    13    28    21    1
    14    21    22    2
    15    21     1    1
    16     1     2   ar
    17     2     3   ar
    18     3     4   ar
    19     4     5   ar
    20     5     6   ar
    21     6     7   ar
    22     7    11    1
    23    11    12   ar
    24    12    13   ar
    25    13    14   ar
    26    14    17    1
    27    17    18    1
    28    17    19    2
    29    17    20    2
    30    14    15   ar
    31    15    16   ar
    32     7     8   ar
    33     8     9   ar
    34    28    29   ar
    35    29    30    1
    36    29    23   ar
    37     9     1   ar
    38     9     4    1
    39    16    11   ar
    40    31    32    1
    41     5    10    1
@<TRIPOS>MOLECULE
*****
 38 41 0 0 0
SMALL
GASTEIGER

@<TRIPOS>ATOM
      1 C          62.9027   90.1970   12.3867 C.ar    1  UNL1        0.0611
      2 C          62.6510   91.2856   11.3859 C.ar    1  UNL1        0.1037
      3 N          62.2477   90.6418   10.0925 N.ar    1  UNL1       -0.2269
      4 C          62.2503   89.1554   10.2939 C.ar    1  UNL1        0.1407
      5 N          61.9363   88.0167    9.3695 N.ar    1  UNL1       -0.3374
      6 C          62.0271   86.6031    9.8629 C.ar    1  UNL1        0.0734
      7 C          62.4319   86.3282   11.2809 C.ar    1  UNL1        0.0171
      8 C          62.7459   87.4669   12.2054 C.ar    1  UNL1        0.0046
      9 C          62.6551   88.8805   11.7119 C.ar    1  UNL1        0.0386
     10 H          61.6706   88.1971    8.4388 H       1  UNL1        0.1674
     11 C          62.5227   84.9146   11.7743 C.ar    1  UNL1        0.0015
     12 C          62.4154   84.6242   13.2420 C.ar    1  UNL1        0.0014
     13 C          62.5062   83.2105   13.7354 C.ar    1  UNL1        0.0183
     14 C          62.7043   82.0873   12.7611 C.ar    1  UNL1        0.1057
     15 C          62.8115   82.3778   11.2934 C.ar    1  UNL1        0.0183
     16 C          62.7207   83.7914   10.8000 C.ar    1  UNL1        0.0014
     17 S          62.7951   80.6737   13.2545 S.O2    1  UNL1        0.0104
     18 C          62.8859   79.2601   13.7478 C.3     1  UNL1        0.1816
     19 O          62.7697   80.1781   11.8390 O.2     1  UNL1       -0.1686
     20 O          62.8204   81.1694   14.6699 O.2     1  UNL1       -0.1686
     21 C          63.3275   90.3910   13.8122 C.2     1  UNL1        0.2015
     22 O          62.5291   89.7760   14.9231 O.2     1  UNL1       -0.2864
     23 C          66.7178   92.3999   13.3427 C.ar    1  UNL1        0.0920
     24 C          66.9976   92.8179   14.7559 C.ar    1  UNL1        0.0204
     25 C          66.0541   92.4269   15.8544 C.ar    1  UNL1        0.0312
     26 C          64.8307   91.6180   15.5399 C.ar    1  UNL1        0.1454
     27 F          63.8872   91.2270   16.6385 F       1  UNL1       -0.2040
     28 C          64.5509   91.2000   14.1268 C.ar    1  UNL1        0.0951
     29 C          65.4945   91.5909   13.0282 C.ar    1  UNL1        0.1598
     30 F          65.2146   91.1729   11.6151 F       1  UNL1       -0.2026
     31 N          67.6614   92.7909   12.2442 N.pl3   1  UNL1       -0.2166
     32 H          68.6290   92.6441   12.3509 H       1  UNL1        0.1734
     33 S          67.1306   93.4055   10.9830 S.O2    1  UNL1        0.0540
     34 O          67.6378   92.2324   10.1978 O.2     1  UNL1       -0.1545
     35 O          66.6234   94.5786   11.7682 O.2     1  UNL1       -0.1545
     36 C          66.5998   94.0202    9.7219 C.3     1  UNL1        0.1724
     37 C          67.3899   96.2738    8.6986 C.3     1  UNL1        0.0019
     38 C          67.5189   94.7839    8.8153 C.3     1  UNL1        0.0273
@<TRIPOS>BOND
     1    37    38    1
     2    38    36    1
     3    36    33    1
     4    33    34    2
     5    33    35    2
     6    33    31    1
     7    31    23    1
     8    23    24   ar
     9    24    25   ar
    10    25    26   ar
    11    26    27    1
    12    26    28   ar
    13    28    21    1
    14    21    22    2
    15    21     1    1
    16     1     2   ar
    17     2     3   ar
    18     3     4   ar
    19     4     5   ar
    20     5     6   ar
    21     6     7   ar
    22     7    11    1
    23    11    12   ar
    24    12    13   ar
    25    13    14   ar
    26    14    17    1
    27    17    18    1
    28    17    19    2
    29    17    20    2
    30    14    15   ar
    31    15    16   ar
    32     7     8   ar
    33     8     9   ar
    34    28    29   ar
    35    29    30    1
    36    29    23   ar
    37     9     1   ar
    38     9     4    1
    39    16    11   ar
    40    31    32    1
    41     5    10    1
