@<TRIPOS>MOLECULE
*****
 42 46 0 0 0
SMALL
GASTEIGER

@<TRIPOS>ATOM
      1 C          63.3434   87.0395   12.9577 C.2     1  UNL1        0.2411
      2 O          64.1437   86.5968   14.1466 O.2     1  UNL1       -0.2733
      3 N          63.2120   88.5004   12.6438 N.am    1  UNL1       -0.2966
      4 H          62.6868   88.7909   11.8635 H       1  UNL1        0.1499
      5 C          62.6745   86.0212   12.0826 C.3     1  UNL1        0.1555
      6 C          61.1451   86.7469   10.1117 C.2     1  UNL1        0.4017
      7 O          62.3536   86.9359    9.2435 O.2     1  UNL1       -0.2264
      8 N          61.3055   86.2895   11.5313 N.am    1  UNL1       -0.2637
      9 H          60.5123   86.1654   12.1011 H       1  UNL1        0.1532
     10 O          59.7762   87.0152    9.5603 O.3     1  UNL1       -0.4419
     11 C          60.0883   89.0839    9.2100 C.3     1  UNL1        0.0437
     12 C          59.6078   87.9287    8.3826 C.3     1  UNL1        0.1378
     13 C          59.1273   86.7736    7.5552 C.3     1  UNL1        0.0437
     14 C          59.4395   88.8424    7.2049 C.3     1  UNL1        0.0437
     15 C          63.3745   84.7347   11.7589 C.3     1  UNL1        0.0577
     16 C          62.9733   83.4671   12.4536 C.ar    1  UNL1        0.0097
     17 C          62.5213   83.5062   13.8833 C.ar    1  UNL1       -0.0018
     18 C          62.1201   82.2387   14.5779 C.ar    1  UNL1        0.0021
     19 C          62.1709   80.9322   13.8428 C.ar    1  UNL1        0.0319
     20 C          62.6229   80.8931   12.4131 C.ar    1  UNL1        0.1671
     21 F          62.6738   79.5866   11.6780 F       1  UNL1       -0.2018
     22 C          63.0241   82.1606   11.7185 C.ar    1  UNL1        0.1634
     23 F          63.4762   82.1216   10.2887 F       1  UNL1       -0.2021
     24 C          63.8809   89.5186   13.5188 C.3     1  UNL1        0.1543
     25 C          64.4114   90.7882   12.9216 C.ar    1  UNL1        0.1417
     26 N          64.3651   91.1668   11.4709 N.ar    1  UNL1       -0.2276
     27 C          65.0064   92.5147   11.3229 C.ar    1  UNL1        0.1167
     28 C          65.2445   93.3870   10.1260 C.ar    1  UNL1        0.0238
     29 C          65.9252   94.7137   10.2884 C.ar    1  UNL1        0.0223
     30 C          66.3678   95.1682   11.6477 C.ar    1  UNL1        0.1006
     31 N          66.1297   94.2959   12.8445 N.ar    1  UNL1       -0.2252
     32 C          65.4490   92.9692   12.6821 C.ar    1  UNL1        0.1626
     33 N          65.0813   91.9022   13.6701 N.ar    1  UNL1       -0.2990
     34 C          65.3383   91.9421   15.1474 C.3     1  UNL1        0.0898
     35 C          65.0870   91.8680   16.6244 C.3     1  UNL1        0.0273
     36 C          63.9639   91.6278   15.6596 C.3     1  UNL1        0.0273
     37 C          66.8020   92.2702   15.1484 C.ar    1  UNL1       -0.0037
     38 C          67.7339   91.5440   14.2243 C.ar    1  UNL1       -0.0025
     39 C          69.1977   91.8722   14.2252 C.ar    1  UNL1       -0.0003
     40 C          69.7293   92.9265   15.1503 C.ar    1  UNL1       -0.0000
     41 C          68.7972   93.6527   16.0745 C.ar    1  UNL1       -0.0003
     42 C          67.3336   93.3246   16.0735 C.ar    1  UNL1       -0.0025
@<TRIPOS>BOND
     1    11    12    1
     2    12    13    1
     3    12    14    1
     4    12    10    1
     5    10     6    1
     6     6     7    2
     7     6     8   am
     8     8     5    1
     9     5    15    1
    10    15    16    1
    11    16    17   ar
    12    17    18   ar
    13    18    19   ar
    14    19    20   ar
    15    20    21    1
    16    20    22   ar
    17    22    23    1
    18     5     1    1
    19     1     2    2
    20     1     3   am
    21     3    24    1
    22    24    25    1
    23    25    26   ar
    24    26    27   ar
    25    27    28   ar
    26    28    29   ar
    27    29    30   ar
    28    30    31   ar
    29    31    32   ar
    30    32    33   ar
    31    33    34    1
    32    34    37    1
    33    37    38   ar
    34    38    39   ar
    35    39    40   ar
    36    40    41   ar
    37    41    42   ar
    38    34    35    1
    39    35    36    1
    40    22    16   ar
    41    33    25   ar
    42    36    34    1
    43    32    27   ar
    44    42    37   ar
    45     8     9    1
    46     3     4    1
@<TRIPOS>MOLECULE
*****
 42 46 0 0 0
SMALL
GASTEIGER

@<TRIPOS>ATOM
      1 C          62.6795   89.9281   11.7841 C.2     1  UNL1        0.2411
      2 O          62.4701   90.7419   13.0266 O.2     1  UNL1       -0.2733
      3 N          63.5580   90.4490   10.6855 N.am    1  UNL1       -0.2966
      4 H          63.6954   89.9149    9.8700 H       1  UNL1        0.1499
      5 C          62.0103   88.5934   11.6401 C.3     1  UNL1        0.1555
      6 C          63.5347   87.2233   13.2367 C.2     1  UNL1        0.4017
      7 O          63.5441   88.3660   14.2084 O.2     1  UNL1       -0.2264
      8 N          62.7678   87.3370   11.9526 N.am    1  UNL1       -0.2637
      9 H          62.7616   86.5870   11.3148 H       1  UNL1        0.1532
     10 O          64.2923   85.9669   13.5491 O.3     1  UNL1       -0.4419
     11 C          63.2979   84.2260   12.8563 C.3     1  UNL1        0.0437
     12 C          63.5931   84.8130   14.2046 C.3     1  UNL1        0.1378
     13 C          63.8883   85.4001   15.5530 C.3     1  UNL1        0.0437
     14 C          62.8939   83.6591   14.8601 C.3     1  UNL1        0.0437
     15 C          60.5835   88.5151   11.1837 C.3     1  UNL1        0.0577
     16 C          60.2705   88.1880    9.7536 C.ar    1  UNL1        0.0097
     17 C          59.8275   89.2719    8.8161 C.ar    1  UNL1       -0.0018
     18 C          59.5145   88.9448    7.3860 C.ar    1  UNL1        0.0021
     19 C          59.6444   87.5340    6.8936 C.ar    1  UNL1        0.0319
     20 C          60.0874   86.4501    7.8311 C.ar    1  UNL1        0.1671
     21 F          60.2173   85.0392    7.3386 F       1  UNL1       -0.2018
     22 C          60.4004   86.7772    9.2611 C.ar    1  UNL1        0.1634
     23 F          60.8434   85.6933   10.1988 F       1  UNL1       -0.2021
     24 C          64.2272   91.7837   10.8295 C.3     1  UNL1        0.1543
     25 C          65.1209   92.0518   12.0039 C.ar    1  UNL1        0.1417
     26 N          64.7341   91.9438   13.4491 N.ar    1  UNL1       -0.2276
     27 C          65.9325   92.3003   14.2777 C.ar    1  UNL1        0.1167
     28 C          66.1427   92.3683   15.7613 C.ar    1  UNL1        0.0238
     29 C          67.4805   92.7647   16.3119 C.ar    1  UNL1        0.0223
     30 C          68.6081   93.0930   15.3788 C.ar    1  UNL1        0.1006
     31 N          68.3980   93.0250   13.8951 N.ar    1  UNL1       -0.2252
     32 C          67.0601   92.6286   13.3446 C.ar    1  UNL1        0.1626
     33 N          66.5585   92.4751   11.9393 N.ar    1  UNL1       -0.2990
     34 C          67.3548   92.7045   10.6890 C.3     1  UNL1        0.0898
     35 C          68.3110   92.4534    9.5609 C.3     1  UNL1        0.0273
     36 C          68.0920   91.4006   10.6067 C.3     1  UNL1        0.0273
     37 C          66.8942   94.0879   10.3370 C.ar    1  UNL1       -0.0037
     38 C          67.1065   94.6189    8.9503 C.ar    1  UNL1       -0.0025
     39 C          66.6459   96.0024    8.5983 C.ar    1  UNL1       -0.0003
     40 C          65.9731   96.8548    9.6331 C.ar    1  UNL1       -0.0000
     41 C          65.7609   96.3238   11.0198 C.ar    1  UNL1       -0.0003
     42 C          66.2215   94.9404   11.3718 C.ar    1  UNL1       -0.0025
@<TRIPOS>BOND
     1    11    12    1
     2    12    13    1
     3    12    14    1
     4    12    10    1
     5    10     6    1
     6     6     7    2
     7     6     8   am
     8     8     5    1
     9     5    15    1
    10    15    16    1
    11    16    17   ar
    12    17    18   ar
    13    18    19   ar
    14    19    20   ar
    15    20    21    1
    16    20    22   ar
    17    22    23    1
    18     5     1    1
    19     1     2    2
    20     1     3   am
    21     3    24    1
    22    24    25    1
    23    25    26   ar
    24    26    27   ar
    25    27    28   ar
    26    28    29   ar
    27    29    30   ar
    28    30    31   ar
    29    31    32   ar
    30    32    33   ar
    31    33    34    1
    32    34    37    1
    33    37    38   ar
    34    38    39   ar
    35    39    40   ar
    36    40    41   ar
    37    41    42   ar
    38    34    35    1
    39    35    36    1
    40    22    16   ar
    41    33    25   ar
    42    36    34    1
    43    32    27   ar
    44    42    37   ar
    45     8     9    1
    46     3     4    1
@<TRIPOS>MOLECULE
*****
 42 46 0 0 0
SMALL
GASTEIGER

@<TRIPOS>ATOM
      1 C          62.7535   89.5740   11.7767 C.2     1  UNL1        0.2411
      2 O          62.3738   90.2434   13.0642 O.2     1  UNL1       -0.2733
      3 N          63.5889   90.3062   10.7686 N.am    1  UNL1       -0.2966
      4 H          63.8381   89.8668    9.9236 H       1  UNL1        0.1499
      5 C          62.2979   88.1724   11.4972 C.3     1  UNL1        0.1555
      6 C          62.8949   85.7324   12.1604 C.2     1  UNL1        0.4017
      7 O          61.5230   85.5543   12.7402 O.2     1  UNL1       -0.2264
      8 N          63.2823   87.0415   11.5389 N.am    1  UNL1       -0.2637
      9 H          64.1828   87.1584   11.1583 H       1  UNL1        0.1532
     10 O          63.8793   84.6014   12.2020 O.3     1  UNL1       -0.4419
     11 C          63.5376   83.7382   10.2947 C.3     1  UNL1        0.0437
     12 C          63.4810   83.2419   11.7090 C.3     1  UNL1        0.1378
     13 C          63.4244   82.7456   13.1233 C.3     1  UNL1        0.0437
     14 C          63.0827   81.8824   11.2159 C.3     1  UNL1        0.0437
     15 C          60.8579   87.9019   11.1761 C.3     1  UNL1        0.0577
     16 C          60.4388   87.6591    9.7564 C.ar    1  UNL1        0.0097
     17 C          60.5395   86.2823    9.1697 C.ar    1  UNL1       -0.0018
     18 C          60.1204   86.0396    7.7501 C.ar    1  UNL1        0.0021
     19 C          59.6008   87.1737    6.9171 C.ar    1  UNL1        0.0319
     20 C          59.5002   88.5505    7.5038 C.ar    1  UNL1        0.1671
     21 F          58.9805   89.6846    6.6708 F       1  UNL1       -0.2018
     22 C          59.9192   88.7932    8.9234 C.ar    1  UNL1        0.1634
     23 F          59.8186   90.1701    9.5102 F       1  UNL1       -0.2021
     24 C          64.0444   91.7077   11.0480 C.3     1  UNL1        0.1543
     25 C          64.9959   91.9762   12.1762 C.ar    1  UNL1        0.1417
     26 N          64.6816   91.8696   13.6390 N.ar    1  UNL1       -0.2276
     27 C          65.9201   92.2260   14.4064 C.ar    1  UNL1        0.1167
     28 C          66.2041   92.2951   15.8777 C.ar    1  UNL1        0.0238
     29 C          67.5680   92.6911   16.3604 C.ar    1  UNL1        0.0223
     30 C          68.6478   93.0179   15.3719 C.ar    1  UNL1        0.1006
     31 N          68.3638   92.9488   13.9006 N.ar    1  UNL1       -0.2252
     32 C          66.9999   92.5528   13.4179 C.ar    1  UNL1        0.1626
     33 N          66.4287   92.3984   12.0396 N.ar    1  UNL1       -0.2990
     34 C          67.1617   92.6263   10.7508 C.3     1  UNL1        0.0898
     35 C          68.0406   92.3645    9.5638 C.3     1  UNL1        0.0273
     36 C          67.8364   91.2955   10.5960 C.3     1  UNL1        0.0273
     37 C          66.7417   94.0362   10.4580 C.ar    1  UNL1       -0.0037
     38 C          66.1673   94.8896   11.5496 C.ar    1  UNL1       -0.0025
     39 C          65.7472   96.2996   11.2568 C.ar    1  UNL1       -0.0003
     40 C          65.9017   96.8559    9.8724 C.ar    1  UNL1       -0.0000
     41 C          66.4761   96.0024    8.7808 C.ar    1  UNL1       -0.0003
     42 C          66.8961   94.5925    9.0736 C.ar    1  UNL1       -0.0025
@<TRIPOS>BOND
     1    11    12    1
     2    12    13    1
     3    12    14    1
     4    12    10    1
     5    10     6    1
     6     6     7    2
     7     6     8   am
     8     8     5    1
     9     5    15    1
    10    15    16    1
    11    16    17   ar
    12    17    18   ar
    13    18    19   ar
    14    19    20   ar
    15    20    21    1
    16    20    22   ar
    17    22    23    1
    18     5     1    1
    19     1     2    2
    20     1     3   am
    21     3    24    1
    22    24    25    1
    23    25    26   ar
    24    26    27   ar
    25    27    28   ar
    26    28    29   ar
    27    29    30   ar
    28    30    31   ar
    29    31    32   ar
    30    32    33   ar
    31    33    34    1
    32    34    37    1
    33    37    38   ar
    34    38    39   ar
    35    39    40   ar
    36    40    41   ar
    37    41    42   ar
    38    34    35    1
    39    35    36    1
    40    22    16   ar
    41    33    25   ar
    42    36    34    1
    43    32    27   ar
    44    42    37   ar
    45     8     9    1
    46     3     4    1
@<TRIPOS>MOLECULE
*****
 42 46 0 0 0
SMALL
GASTEIGER

@<TRIPOS>ATOM
      1 C          64.2346   91.7123   11.2098 C.2     1  UNL1        0.2411
      2 O          63.4296   91.9360    9.9641 O.2     1  UNL1       -0.2733
      3 N          63.8369   90.6367   12.1768 N.am    1  UNL1       -0.2966
      4 H          64.3653   90.4899   12.9944 H       1  UNL1        0.1499
      5 C          65.4374   92.5642   11.4887 C.3     1  UNL1        0.1555
      6 C          66.6819   94.6041   10.4689 C.2     1  UNL1        0.4017
      7 O          67.9067   93.7601   10.2754 O.2     1  UNL1       -0.2264
      8 N          65.4472   94.0061   11.0755 N.am    1  UNL1       -0.2637
      9 H          64.6433   94.5601   11.2025 H       1  UNL1        0.1532
     10 O          66.6918   96.0460   10.0557 O.3     1  UNL1       -0.4419
     11 C          67.4051   96.0738    8.0581 C.3     1  UNL1        0.0437
     12 C          66.1179   96.4502    8.7301 C.3     1  UNL1        0.1378
     13 C          64.8308   96.8266    9.4021 C.3     1  UNL1        0.0437
     14 C          65.5441   96.8545    7.4044 C.3     1  UNL1        0.0437
     15 C          66.6302   91.9741   12.1807 C.3     1  UNL1        0.0577
     16 C          66.8003   92.1474   13.6610 C.ar    1  UNL1        0.0097
     17 C          65.5985   92.3505   14.5353 C.ar    1  UNL1       -0.0018
     18 C          65.7687   92.5238   16.0155 C.ar    1  UNL1        0.0021
     19 C          67.1405   92.4940   16.6214 C.ar    1  UNL1        0.0319
     20 C          68.3423   92.2909   15.7470 C.ar    1  UNL1        0.1671
     21 F          69.7142   92.2611   16.3529 F       1  UNL1       -0.2018
     22 C          68.1722   92.1176   14.2669 C.ar    1  UNL1        0.1634
     23 F          69.3740   91.9145   13.3924 F       1  UNL1       -0.2021
     24 C          62.6342   89.7848   11.8980 C.3     1  UNL1        0.1543
     25 C          62.7247   88.2934   12.0299 C.ar    1  UNL1        0.1417
     26 N          63.6005   87.5447   12.9903 N.ar    1  UNL1       -0.2276
     27 C          63.3723   86.0773   12.7786 C.ar    1  UNL1        0.1167
     28 C          63.9591   84.8648   13.4385 C.ar    1  UNL1        0.0238
     29 C          63.5290   83.4941   13.0071 C.ar    1  UNL1        0.0223
     30 C          62.5121   83.3359   11.9158 C.ar    1  UNL1        0.1006
     31 N          61.9253   84.5484   11.2559 N.ar    1  UNL1       -0.2252
     32 C          62.3554   85.9191   11.6873 C.ar    1  UNL1        0.1626
     33 N          61.9552   87.2887   11.2246 N.ar    1  UNL1       -0.2990
     34 C          60.9601   87.5991   10.1460 C.3     1  UNL1        0.0898
     35 C          59.8008   88.2360    9.4386 C.3     1  UNL1        0.0273
     36 C          60.1415   88.6469   10.8404 C.3     1  UNL1        0.0273
     37 C          61.4330   86.6592    9.0769 C.ar    1  UNL1       -0.0037
     38 C          60.4454   86.0363    8.1354 C.ar    1  UNL1       -0.0025
     39 C          60.9183   85.0963    7.0663 C.ar    1  UNL1       -0.0003
     40 C          62.3788   84.7793    6.9389 C.ar    1  UNL1       -0.0000
     41 C          63.3665   85.4023    7.8805 C.ar    1  UNL1       -0.0003
     42 C          62.8936   86.3422    8.9495 C.ar    1  UNL1       -0.0025
@<TRIPOS>BOND
     1    11    12    1
     2    12    13    1
     3    12    14    1
     4    12    10    1
     5    10     6    1
     6     6     7    2
     7     6     8   am
     8     8     5    1
     9     5    15    1
    10    15    16    1
    11    16    17   ar
    12    17    18   ar
    13    18    19   ar
    14    19    20   ar
    15    20    21    1
    16    20    22   ar
    17    22    23    1
    18     5     1    1
    19     1     2    2
    20     1     3   am
    21     3    24    1
    22    24    25    1
    23    25    26   ar
    24    26    27   ar
    25    27    28   ar
    26    28    29   ar
    27    29    30   ar
    28    30    31   ar
    29    31    32   ar
    30    32    33   ar
    31    33    34    1
    32    34    37    1
    33    37    38   ar
    34    38    39   ar
    35    39    40   ar
    36    40    41   ar
    37    41    42   ar
    38    34    35    1
    39    35    36    1
    40    22    16   ar
    41    33    25   ar
    42    36    34    1
    43    32    27   ar
    44    42    37   ar
    45     8     9    1
    46     3     4    1
@<TRIPOS>MOLECULE
*****
 42 46 0 0 0
SMALL
GASTEIGER

@<TRIPOS>ATOM
      1 C          63.0352   89.3440   12.4940 C.2     1  UNL1        0.2411
      2 O          62.7144   90.0423   13.7822 O.2     1  UNL1       -0.2733
      3 N          63.7261   90.0876   11.3896 N.am    1  UNL1       -0.2966
      4 H          63.9367   89.6293   10.5442 H       1  UNL1        0.1499
      5 C          62.6652   87.9019   12.3102 C.3     1  UNL1        0.1555
      6 C          61.3636   87.4544   10.1066 C.2     1  UNL1        0.4017
      7 O          62.6068   87.7341    9.3154 O.2     1  UNL1       -0.2264
      8 N          61.3928   87.5383   11.6040 N.am    1  UNL1       -0.2637
      9 H          60.5768   87.3547   12.1234 H       1  UNL1        0.1532
     10 O          60.0911   87.0908    9.4005 O.3     1  UNL1       -0.4419
     11 C          59.1960   86.6487    7.5288 C.3     1  UNL1        0.0437
     12 C          59.6246   87.9038    8.2295 C.3     1  UNL1        0.1378
     13 C          60.0531   89.1589    8.9302 C.3     1  UNL1        0.0437
     14 C          59.1579   88.7168    7.0585 C.3     1  UNL1        0.0437
     15 C          63.5677   86.8236   12.8325 C.3     1  UNL1        0.0577
     16 C          63.1962   85.3816   12.6512 C.ar    1  UNL1        0.0097
     17 C          63.1938   84.7745   11.2796 C.ar    1  UNL1       -0.0018
     18 C          62.8224   83.3326   11.0984 C.ar    1  UNL1        0.0021
     19 C          62.4533   82.4978   12.2888 C.ar    1  UNL1        0.0319
     20 C          62.4556   83.1050   13.6603 C.ar    1  UNL1        0.1671
     21 F          62.0866   82.2703   14.8507 F       1  UNL1       -0.2018
     22 C          62.8271   84.5469   13.8416 C.ar    1  UNL1        0.1634
     23 F          62.8295   85.1542   15.2132 F       1  UNL1       -0.2021
     24 C          64.0962   91.5296   11.5734 C.3     1  UNL1        0.1543
     25 C          65.0929   91.9201   12.6241 C.ar    1  UNL1        0.1417
     26 N          64.8729   91.8777   14.1073 N.ar    1  UNL1       -0.2276
     27 C          66.1287   92.3529   14.7760 C.ar    1  UNL1        0.1167
     28 C          66.4939   92.5230   16.2209 C.ar    1  UNL1        0.0238
     29 C          67.8551   93.0292   16.5958 C.ar    1  UNL1        0.0223
     30 C          68.8513   93.3654   15.5259 C.ar    1  UNL1        0.1006
     31 N          68.4861   93.1953   14.0810 N.ar    1  UNL1       -0.2252
     32 C          67.1249   92.6890   13.7061 C.ar    1  UNL1        0.1626
     33 N          66.4847   92.4215   12.3762 N.ar    1  UNL1       -0.2990
     34 C          67.1241   92.6205   11.0339 C.3     1  UNL1        0.0898
     35 C          67.9144   92.3311    9.7923 C.3     1  UNL1        0.0273
     36 C          67.7806   91.2834   10.8573 C.3     1  UNL1        0.0273
     37 C          66.6897   94.0267   10.7444 C.ar    1  UNL1       -0.0037
     38 C          66.2558   94.9235   11.8657 C.ar    1  UNL1       -0.0025
     39 C          65.8213   96.3298   11.5762 C.ar    1  UNL1       -0.0003
     40 C          65.8209   96.8391   10.1653 C.ar    1  UNL1       -0.0000
     41 C          66.2549   95.9423    9.0439 C.ar    1  UNL1       -0.0003
     42 C          66.6893   94.5361    9.3335 C.ar    1  UNL1       -0.0025
@<TRIPOS>BOND
     1    11    12    1
     2    12    13    1
     3    12    14    1
     4    12    10    1
     5    10     6    1
     6     6     7    2
     7     6     8   am
     8     8     5    1
     9     5    15    1
    10    15    16    1
    11    16    17   ar
    12    17    18   ar
    13    18    19   ar
    14    19    20   ar
    15    20    21    1
    16    20    22   ar
    17    22    23    1
    18     5     1    1
    19     1     2    2
    20     1     3   am
    21     3    24    1
    22    24    25    1
    23    25    26   ar
    24    26    27   ar
    25    27    28   ar
    26    28    29   ar
    27    29    30   ar
    28    30    31   ar
    29    31    32   ar
    30    32    33   ar
    31    33    34    1
    32    34    37    1
    33    37    38   ar
    34    38    39   ar
    35    39    40   ar
    36    40    41   ar
    37    41    42   ar
    38    34    35    1
    39    35    36    1
    40    22    16   ar
    41    33    25   ar
    42    36    34    1
    43    32    27   ar
    44    42    37   ar
    45     8     9    1
    46     3     4    1
@<TRIPOS>MOLECULE
*****
 42 46 0 0 0
SMALL
GASTEIGER

@<TRIPOS>ATOM
      1 C          63.9688   91.0546   12.5868 C.2     1  UNL1        0.2411
      2 O          63.3756   90.6657   13.9085 O.2     1  UNL1       -0.2733
      3 N          63.3862   90.5133   11.3149 N.am    1  UNL1       -0.2966
      4 H          63.7756   90.7685   10.4474 H       1  UNL1        0.1499
      5 C          65.1445   91.9848   12.5369 C.3     1  UNL1        0.1555
      6 C          66.2920   92.0566   14.8668 C.2     1  UNL1        0.4017
      7 O          65.0460   92.6418   15.4624 O.2     1  UNL1       -0.2264
      8 N          66.3413   91.7280   13.4040 N.am    1  UNL1       -0.2637
      9 H          67.1591   91.3439   13.0130 H       1  UNL1        0.1532
     10 O          67.4888   91.7998   15.7338 O.3     1  UNL1       -0.4419
     11 C          67.6993   93.8109   15.0925 C.3     1  UNL1        0.0437
     12 C          68.5246   92.8690   15.9181 C.3     1  UNL1        0.1378
     13 C          69.3499   91.9271   16.7437 C.3     1  UNL1        0.0437
     14 C          69.5604   93.9382   16.1024 C.3     1  UNL1        0.0437
     15 C          65.1234   93.1717   11.6200 C.3     1  UNL1        0.0577
     16 C          66.2399   93.3827   10.6406 C.ar    1  UNL1        0.0097
     17 C          67.1633   92.2506   10.3006 C.ar    1  UNL1       -0.0018
     18 C          68.2797   92.4617    9.3212 C.ar    1  UNL1        0.0021
     19 C          68.4726   93.8049    8.6819 C.ar    1  UNL1        0.0319
     20 C          67.5491   94.9369    9.0219 C.ar    1  UNL1        0.1671
     21 F          67.7420   96.2801    8.3825 F       1  UNL1       -0.2018
     22 C          66.4328   94.7258   10.0012 C.ar    1  UNL1        0.1634
     23 F          65.5093   95.8579   10.3413 F       1  UNL1       -0.2021
     24 C          62.2105   89.5831   11.3647 C.3     1  UNL1        0.1543
     25 C          62.4190   88.1256   11.6512 C.ar    1  UNL1        0.1417
     26 N          63.3654   87.5526   12.6641 N.ar    1  UNL1       -0.2276
     27 C          63.2489   86.0580   12.6140 C.ar    1  UNL1        0.1167
     28 C          63.9387   84.9711   13.3840 C.ar    1  UNL1        0.0238
     29 C          63.6099   83.5335   13.1102 C.ar    1  UNL1        0.0223
     30 C          62.5914   83.1827   12.0664 C.ar    1  UNL1        0.1006
     31 N          61.9016   84.2695   11.2964 N.ar    1  UNL1       -0.2252
     32 C          62.2304   85.7072   11.5702 C.ar    1  UNL1        0.1626
     33 N          61.7175   86.9850   10.9752 N.ar    1  UNL1       -0.2990
     34 C          60.6844   87.1018    9.8939 C.3     1  UNL1        0.0898
     35 C          59.4262   87.5060    9.1843 C.3     1  UNL1        0.0273
     36 C          59.6774   87.9700   10.5884 C.3     1  UNL1        0.0273
     37 C          61.3325   86.2742    8.8239 C.ar    1  UNL1       -0.0037
     38 C          60.5064   85.7183    7.7021 C.ar    1  UNL1       -0.0025
     39 C          61.1545   84.8907    6.6320 C.ar    1  UNL1       -0.0003
     40 C          62.6288   84.6189    6.6839 C.ar    1  UNL1       -0.0000
     41 C          63.4550   85.1748    7.8058 C.ar    1  UNL1       -0.0003
     42 C          62.8068   86.0024    8.8758 C.ar    1  UNL1       -0.0025
@<TRIPOS>BOND
     1    11    12    1
     2    12    13    1
     3    12    14    1
     4    12    10    1
     5    10     6    1
     6     6     7    2
     7     6     8   am
     8     8     5    1
     9     5    15    1
    10    15    16    1
    11    16    17   ar
    12    17    18   ar
    13    18    19   ar
    14    19    20   ar
    15    20    21    1
    16    20    22   ar
    17    22    23    1
    18     5     1    1
    19     1     2    2
    20     1     3   am
    21     3    24    1
    22    24    25    1
    23    25    26   ar
    24    26    27   ar
    25    27    28   ar
    26    28    29   ar
    27    29    30   ar
    28    30    31   ar
    29    31    32   ar
    30    32    33   ar
    31    33    34    1
    32    34    37    1
    33    37    38   ar
    34    38    39   ar
    35    39    40   ar
    36    40    41   ar
    37    41    42   ar
    38    34    35    1
    39    35    36    1
    40    22    16   ar
    41    33    25   ar
    42    36    34    1
    43    32    27   ar
    44    42    37   ar
    45     8     9    1
    46     3     4    1
@<TRIPOS>MOLECULE
*****
 42 46 0 0 0
SMALL
GASTEIGER

@<TRIPOS>ATOM
      1 C          62.5636   87.9304   12.3165 C.2     1  UNL1        0.2411
      2 O          61.4757   88.9496   12.1505 O.2     1  UNL1       -0.2733
      3 N          63.7327   88.2201   13.2105 N.am    1  UNL1       -0.2966
      4 H          64.4468   87.5511   13.3194 H       1  UNL1        0.1499
      5 C          62.4825   86.6214   11.5884 C.3     1  UNL1        0.1555
      6 C          62.9594   84.7404   13.3160 C.2     1  UNL1        0.4017
      7 O          64.3100   85.3333   13.5887 O.2     1  UNL1       -0.2264
      8 N          62.0456   85.3845   12.3158 N.am    1  UNL1       -0.2637
      9 H          61.1592   84.9953   12.1369 H       1  UNL1        0.1532
     10 O          62.5226   83.5035   14.0434 O.3     1  UNL1       -0.4419
     11 C          63.7893   82.6735   12.5580 C.3     1  UNL1        0.0437
     12 C          62.6457   82.1623   13.3832 C.3     1  UNL1        0.1378
     13 C          61.5022   81.6511   14.2083 C.3     1  UNL1        0.0437
     14 C          62.7689   80.8210   12.7229 C.3     1  UNL1        0.0437
     15 C          62.8381   86.5494   10.1330 C.3     1  UNL1        0.0577
     16 C          61.7626   86.3468    9.1072 C.ar    1  UNL1        0.0097
     17 C          60.4768   87.1129    9.2073 C.ar    1  UNL1       -0.0018
     18 C          59.4014   86.9103    8.1815 C.ar    1  UNL1        0.0021
     19 C          59.6116   85.9417    7.0557 C.ar    1  UNL1        0.0319
     20 C          60.8973   85.1756    6.9556 C.ar    1  UNL1        0.1671
     21 F          61.1075   84.2069    5.8298 F       1  UNL1       -0.2018
     22 C          61.9728   85.3782    7.9814 C.ar    1  UNL1        0.1634
     23 F          63.2586   84.6121    7.8813 F       1  UNL1       -0.2021
     24 C          63.8139   89.5290   13.9385 C.3     1  UNL1        0.1543
     25 C          64.3480   90.7441   13.2396 C.ar    1  UNL1        0.1417
     26 N          64.2566   91.0271   11.7694 N.ar    1  UNL1       -0.2276
     27 C          64.9194   92.3474   11.5094 C.ar    1  UNL1        0.1167
     28 C          65.1314   93.1331   10.2494 C.ar    1  UNL1        0.0238
     29 C          65.8444   94.4518   10.2990 C.ar    1  UNL1        0.0223
     30 C          66.3455   94.9848   11.6085 C.ar    1  UNL1        0.1006
     31 N          66.1335   94.1991   12.8685 N.ar    1  UNL1       -0.2252
     32 C          65.4205   92.8804   12.8190 C.ar    1  UNL1        0.1626
     33 N          65.0673   91.8895   13.8883 N.ar    1  UNL1       -0.2990
     34 C          65.3788   92.0209   15.3497 C.3     1  UNL1        0.0898
     35 C          65.1808   92.0466   16.8363 C.3     1  UNL1        0.0273
     36 C          64.0199   91.7622   15.9300 C.3     1  UNL1        0.0273
     37 C          66.8458   92.3253   15.2770 C.ar    1  UNL1       -0.0037
     38 C          67.7310   91.5354   14.3591 C.ar    1  UNL1       -0.0025
     39 C          69.1981   91.8398   14.2864 C.ar    1  UNL1       -0.0003
     40 C          69.7797   92.9340   15.1316 C.ar    1  UNL1       -0.0000
     41 C          68.8944   93.7239   16.0495 C.ar    1  UNL1       -0.0003
     42 C          67.4275   93.4195   16.1222 C.ar    1  UNL1       -0.0025
@<TRIPOS>BOND
     1    11    12    1
     2    12    13    1
     3    12    14    1
     4    12    10    1
     5    10     6    1
     6     6     7    2
     7     6     8   am
     8     8     5    1
     9     5    15    1
    10    15    16    1
    11    16    17   ar
    12    17    18   ar
    13    18    19   ar
    14    19    20   ar
    15    20    21    1
    16    20    22   ar
    17    22    23    1
    18     5     1    1
    19     1     2    2
    20     1     3   am
    21     3    24    1
    22    24    25    1
    23    25    26   ar
    24    26    27   ar
    25    27    28   ar
    26    28    29   ar
    27    29    30   ar
    28    30    31   ar
    29    31    32   ar
    30    32    33   ar
    31    33    34    1
    32    34    37    1
    33    37    38   ar
    34    38    39   ar
    35    39    40   ar
    36    40    41   ar
    37    41    42   ar
    38    34    35    1
    39    35    36    1
    40    22    16   ar
    41    33    25   ar
    42    36    34    1
    43    32    27   ar
    44    42    37   ar
    45     8     9    1
    46     3     4    1
@<TRIPOS>MOLECULE
*****
 42 46 0 0 0
SMALL
GASTEIGER

@<TRIPOS>ATOM
      1 C          62.5339   88.0709   12.3504 C.2     1  UNL1        0.2411
      2 O          61.4614   89.1194   12.3324 O.2     1  UNL1       -0.2733
      3 N          63.7881   88.2944   13.1422 N.am    1  UNL1       -0.2966
      4 H          64.4921   87.6063   13.1540 H       1  UNL1        0.1499
      5 C          62.3523   86.7988   11.5765 C.3     1  UNL1        0.1555
      6 C          62.9622   84.9107   13.2538 C.2     1  UNL1        0.4017
      7 O          64.2921   85.5592   13.5001 O.2     1  UNL1       -0.2264
      8 N          61.9922   85.5306   12.2919 N.am    1  UNL1       -0.2637
      9 H          61.1193   85.1050   12.1302 H       1  UNL1        0.1532
     10 O          62.6021   83.6425   13.9692 O.3     1  UNL1       -0.4419
     11 C          61.6156   81.7724   14.1409 C.3     1  UNL1        0.0437
     12 C          62.6908   82.3270   13.2541 C.3     1  UNL1        0.1378
     13 C          63.7660   82.8815   12.3673 C.3     1  UNL1        0.0437
     14 C          62.7795   81.0113   12.5390 C.3     1  UNL1        0.0437
     15 C          62.5307   86.7950   10.0871 C.3     1  UNL1        0.0577
     16 C          61.3620   87.0805    9.1910 C.ar    1  UNL1        0.0097
     17 C          60.5992   85.9483    8.5697 C.ar    1  UNL1       -0.0018
     18 C          59.4306   86.2339    7.6737 C.ar    1  UNL1        0.0021
     19 C          59.0249   87.6516    7.3990 C.ar    1  UNL1        0.0319
     20 C          59.7877   88.7838    8.0204 C.ar    1  UNL1        0.1671
     21 F          59.3820   90.2015    7.7458 F       1  UNL1       -0.2018
     22 C          60.9563   88.4983    8.9164 C.ar    1  UNL1        0.1634
     23 F          61.7192   89.6305    9.5378 F       1  UNL1       -0.2021
     24 C          63.9698   89.5665   13.9161 C.3     1  UNL1        0.1543
     25 C          64.4632   90.8020   13.2232 C.ar    1  UNL1        0.1417
     26 N          64.3534   91.0934   11.7559 N.ar    1  UNL1       -0.2276
     27 C          64.9754   92.4345   11.5018 C.ar    1  UNL1        0.1167
     28 C          65.1556   93.2357   10.2466 C.ar    1  UNL1        0.0238
     29 C          65.8299   94.5744   10.3017 C.ar    1  UNL1        0.0223
     30 C          66.3241   95.1119   11.6120 C.ar    1  UNL1        0.1006
     31 N          66.1440   94.3107   12.8672 N.ar    1  UNL1       -0.2252
     32 C          65.4696   92.9720   12.8121 C.ar    1  UNL1        0.1626
     33 N          65.1530   91.9630   13.8759 N.ar    1  UNL1       -0.2990
     34 C          65.4706   92.0924   15.3362 C.3     1  UNL1        0.0898
     35 C          65.2775   92.1219   16.8234 C.3     1  UNL1        0.0273
     36 C          64.1107   91.8497   15.9211 C.3     1  UNL1        0.0273
     37 C          66.9407   92.3801   15.2586 C.ar    1  UNL1       -0.0037
     38 C          67.8073   91.6057   14.3104 C.ar    1  UNL1       -0.0025
     39 C          69.2775   91.8934   14.2328 C.ar    1  UNL1       -0.0003
     40 C          69.8809   92.9554   15.1034 C.ar    1  UNL1       -0.0000
     41 C          69.0141   93.7298   16.0517 C.ar    1  UNL1       -0.0003
     42 C          67.5440   93.4421   16.1293 C.ar    1  UNL1       -0.0025
@<TRIPOS>BOND
     1    11    12    1
     2    12    13    1
     3    12    14    1
     4    12    10    1
     5    10     6    1
     6     6     7    2
     7     6     8   am
     8     8     5    1
     9     5    15    1
    10    15    16    1
    11    16    17   ar
    12    17    18   ar
    13    18    19   ar
    14    19    20   ar
    15    20    21    1
    16    20    22   ar
    17    22    23    1
    18     5     1    1
    19     1     2    2
    20     1     3   am
    21     3    24    1
    22    24    25    1
    23    25    26   ar
    24    26    27   ar
    25    27    28   ar
    26    28    29   ar
    27    29    30   ar
    28    30    31   ar
    29    31    32   ar
    30    32    33   ar
    31    33    34    1
    32    34    37    1
    33    37    38   ar
    34    38    39   ar
    35    39    40   ar
    36    40    41   ar
    37    41    42   ar
    38    34    35    1
    39    35    36    1
    40    22    16   ar
    41    33    25   ar
    42    36    34    1
    43    32    27   ar
    44    42    37   ar
    45     8     9    1
    46     3     4    1
@<TRIPOS>MOLECULE
*****
 42 46 0 0 0
SMALL
GASTEIGER

@<TRIPOS>ATOM
      1 C          61.0909   89.0963   11.3165 C.2     1  UNL1        0.2411
      2 O          60.4985   90.3186   10.6800 O.2     1  UNL1       -0.2733
      3 N          62.0525   89.2369   12.4591 N.am    1  UNL1       -0.2966
      4 H          62.4413   88.4347   12.8768 H       1  UNL1        0.1499
      5 C          60.7217   87.7334   10.8103 C.3     1  UNL1        0.1555
      6 C          61.9715   85.9829   12.2677 C.2     1  UNL1        0.4017
      7 O          63.2860   86.5658   11.8406 O.2     1  UNL1       -0.2264
      8 N          60.6893   86.5668   11.7525 N.am    1  UNL1       -0.2637
      9 H          59.8266   86.1842   12.0329 H       1  UNL1        0.1532
     10 O          61.9391   84.8163   13.2100 O.3     1  UNL1       -0.4419
     11 C          62.9797   83.4349   14.4383 C.3     1  UNL1        0.0437
     12 C          62.8160   83.6254   12.9595 C.3     1  UNL1        0.1378
     13 C          62.6523   83.8159   11.4807 C.3     1  UNL1        0.0437
     14 C          63.6929   82.4344   12.7091 C.3     1  UNL1        0.0437
     15 C          60.3850   87.5371    9.3618 C.3     1  UNL1        0.0577
     16 C          61.1481   86.5385    8.5430 C.ar    1  UNL1        0.0097
     17 C          62.6061   86.3076    8.8094 C.ar    1  UNL1       -0.0018
     18 C          63.3692   85.3090    7.9906 C.ar    1  UNL1        0.0021
     19 C          62.6743   84.5413    6.9054 C.ar    1  UNL1        0.0319
     20 C          61.2164   84.7722    6.6389 C.ar    1  UNL1        0.1671
     21 F          60.5215   84.0045    5.5537 F       1  UNL1       -0.2018
     22 C          60.4533   85.7708    7.4577 C.ar    1  UNL1        0.1634
     23 F          58.9952   86.0017    7.1913 F       1  UNL1       -0.2021
     24 C          62.4217   90.5998   12.9653 C.3     1  UNL1        0.1543
     25 C          63.8647   90.9675   13.1451 C.ar    1  UNL1        0.1417
     26 N          64.8343   91.2956   12.0486 N.ar    1  UNL1       -0.2276
     27 C          66.1604   91.6026   12.6789 C.ar    1  UNL1        0.1167
     28 C          67.4851   91.9903   12.0916 C.ar    1  UNL1        0.0238
     29 C          68.6598   92.2396   12.9904 C.ar    1  UNL1        0.0223
     30 C          68.5098   92.1013   14.4764 C.ar    1  UNL1        0.1006
     31 N          67.1851   91.7136   15.0637 N.ar    1  UNL1       -0.2252
     32 C          66.0104   91.4643   14.1649 C.ar    1  UNL1        0.1626
     33 N          64.5916   91.0718   14.4531 N.ar    1  UNL1       -0.2990
     34 C          64.0031   90.8266   15.8108 C.3     1  UNL1        0.0898
     35 C          63.4410   91.1017   17.1740 C.3     1  UNL1        0.0273
     36 C          63.8747   92.2395   16.2981 C.3     1  UNL1        0.0273
     37 C          63.9271   89.3287   15.7952 C.ar    1  UNL1       -0.0037
     38 C          64.6483   88.5522   14.7336 C.ar    1  UNL1       -0.0025
     39 C          64.5723   87.0542   14.7179 C.ar    1  UNL1       -0.0003
     40 C          63.7751   86.3327   15.7639 C.ar    1  UNL1       -0.0000
     41 C          63.0539   87.1092   16.8255 C.ar    1  UNL1       -0.0003
     42 C          63.1299   88.6072   16.8411 C.ar    1  UNL1       -0.0025
@<TRIPOS>BOND
     1    11    12    1
     2    12    13    1
     3    12    14    1
     4    12    10    1
     5    10     6    1
     6     6     7    2
     7     6     8   am
     8     8     5    1
     9     5    15    1
    10    15    16    1
    11    16    17   ar
    12    17    18   ar
    13    18    19   ar
    14    19    20   ar
    15    20    21    1
    16    20    22   ar
    17    22    23    1
    18     5     1    1
    19     1     2    2
    20     1     3   am
    21     3    24    1
    22    24    25    1
    23    25    26   ar
    24    26    27   ar
    25    27    28   ar
    26    28    29   ar
    27    29    30   ar
    28    30    31   ar
    29    31    32   ar
    30    32    33   ar
    31    33    34    1
    32    34    37    1
    33    37    38   ar
    34    38    39   ar
    35    39    40   ar
    36    40    41   ar
    37    41    42   ar
    38    34    35    1
    39    35    36    1
    40    22    16   ar
    41    33    25   ar
    42    36    34    1
    43    32    27   ar
    44    42    37   ar
    45     8     9    1
    46     3     4    1
