@<TRIPOS>MOLECULE
*****
 34 37 0 0 0
SMALL
GASTEIGER

@<TRIPOS>ATOM
      1 N          63.2367   84.4945   14.6437 N.ar    1  UNL1       -0.2286
      2 C          62.6213   85.2640   15.7746 C.ar    1  UNL1        0.0990
      3 C          63.0958   86.6839   15.6815 C.ar    1  UNL1        0.0338
      4 C          64.0045   86.7919   14.4929 C.ar    1  UNL1        0.0981
      5 N          64.0916   85.4388   13.8516 N.ar    1  UNL1       -0.1680
      6 C          64.4791   88.2118   14.3997 C.3     1  UNL1        0.1414
      7 N          63.8636   88.9814   15.5307 N.am    1  UNL1       -0.2660
      8 C          64.0673   90.4392   15.8189 C.2     1  UNL1        0.2525
      9 O          63.3821   91.0747   16.9923 O.2     1  UNL1       -0.2698
     10 C          63.0087   88.0371   16.3228 C.3     1  UNL1        0.1236
     11 C          60.0721   80.4008   14.1677 C.3     1  UNL1        0.0521
     12 C          61.4507   80.9897   14.1175 C.ar    1  UNL1        0.0609
     13 C          61.6545   82.4476   14.4057 C.ar    1  UNL1        0.0339
     14 C          63.0330   83.0366   14.3555 C.ar    1  UNL1        0.0855
     15 C          64.2080   82.1677   14.0170 C.ar    1  UNL1        0.0398
     16 C          64.0042   80.7098   13.7288 C.ar    1  UNL1        0.1000
     17 N          62.6256   80.1208   13.7790 N.ar    1  UNL1       -0.2480
     18 C          64.9561   91.2617   14.9338 C.ar    1  UNL1        0.0888
     19 C          66.2583   91.7884   15.4598 C.ar    1  UNL1        0.0259
     20 C          67.1472   92.6109   14.5747 C.ar    1  UNL1        0.1061
     21 C          66.7338   92.9068   13.1635 C.ar    1  UNL1        0.0215
     22 C          65.4315   92.3801   12.6374 C.ar    1  UNL1        0.0384
     23 C          64.5427   91.5576   13.5225 C.ar    1  UNL1        0.1432
     24 S          68.4494   93.1375   15.1009 S.O2    1  UNL1        0.0105
     25 C          69.7517   93.6641   15.6269 C.3     1  UNL1        0.1816
     26 O          69.1803   92.4344   13.9956 O.2     1  UNL1       -0.1686
     27 O          67.7187   93.8406   16.2061 O.2     1  UNL1       -0.1686
     28 O          63.2404   91.0310   12.9964 O.3     1  UNL1       -0.4702
     29 C          63.1255   90.6135   11.5603 C.3     1  UNL1        0.2599
     30 C          63.5223   91.5632   10.4691 C.3     1  UNL1        0.0566
     31 C          62.6139   89.2463   11.2153 C.3     1  UNL1        0.4340
     32 F          62.1023   87.8792   10.8704 F       1  UNL1       -0.1664
     33 F          63.0967   89.4213    9.8059 F       1  UNL1       -0.1664
     34 F          62.1311   89.0714   12.6247 F       1  UNL1       -0.1664
@<TRIPOS>BOND
     1    11    12    1
     2    12    13   ar
     3    13    14   ar
     4    14     1    1
     5     1     2   ar
     6     2     3   ar
     7     3     4   ar
     8     4     5   ar
     9     4     6    1
    10     6     7    1
    11     7     8   am
    12     8     9    2
    13     8    18    1
    14    18    19   ar
    15    19    20   ar
    16    20    24    1
    17    24    25    1
    18    24    26    2
    19    24    27    2
    20    20    21   ar
    21    21    22   ar
    22    22    23   ar
    23    23    28    1
    24    28    29    1
    25    29    30    1
    26    29    31    1
    27    31    32    1
    28    31    33    1
    29    31    34    1
    30     7    10    1
    31    14    15   ar
    32    15    16   ar
    33    16    17   ar
    34    17    12   ar
    35     5     1   ar
    36    23    18   ar
    37    10     3    1
@<TRIPOS>MOLECULE
*****
 34 37 0 0 0
SMALL
GASTEIGER

@<TRIPOS>ATOM
      1 N          63.0856   83.1734   13.5946 N.ar    1  UNL1       -0.2286
      2 C          62.7786   83.6573   14.9808 C.ar    1  UNL1        0.0990
      3 C          63.1099   85.1189   15.0454 C.ar    1  UNL1        0.0338
      4 C          63.6216   85.5382   13.6992 C.ar    1  UNL1        0.0981
      5 N          63.6066   84.3358   12.8026 N.ar    1  UNL1       -0.1680
      6 C          63.9529   86.9997   13.7639 C.3     1  UNL1        0.1414
      7 N          63.6459   87.4837   15.1501 N.am    1  UNL1       -0.2660
      8 C          63.8279   88.8842   15.6555 C.2     1  UNL1        0.2525
      9 O          63.4757   89.2213   17.0742 O.2     1  UNL1       -0.2698
     10 C          63.1249   86.3212   15.9421 C.3     1  UNL1        0.1236
     11 C          63.0308   79.7813    9.6588 C.3     1  UNL1        0.0521
     12 C          62.8762   80.0768   11.1212 C.ar    1  UNL1        0.0609
     13 C          63.0582   81.4773   11.6267 C.ar    1  UNL1        0.0339
     14 C          62.9036   81.7729   13.0892 C.ar    1  UNL1        0.0855
     15 C          62.5669   80.6680   14.0461 C.ar    1  UNL1        0.0398
     16 C          62.3849   79.2675   13.5406 C.ar    1  UNL1        0.1000
     17 N          62.5395   78.9719   12.0781 N.ar    1  UNL1       -0.2480
     18 C          64.3621   89.9476   14.7424 C.ar    1  UNL1        0.0888
     19 C          65.7156   90.5427   14.9953 C.ar    1  UNL1        0.0259
     20 C          66.2498   91.6061   14.0822 C.ar    1  UNL1        0.1061
     21 C          65.4306   92.0744   12.9162 C.ar    1  UNL1        0.0215
     22 C          64.0771   91.4793   12.6633 C.ar    1  UNL1        0.0384
     23 C          63.5429   90.4159   13.5764 C.ar    1  UNL1        0.1432
     24 S          67.6033   92.2012   14.3352 S.O2    1  UNL1        0.0105
     25 C          68.9568   92.7962   14.5883 C.3     1  UNL1        0.1816
     26 O          67.3911   92.0554   15.8130 O.2     1  UNL1       -0.1686
     27 O          67.8156   92.3469   12.8574 O.2     1  UNL1       -0.1686
     28 O          62.1894   89.8208   13.3235 O.3     1  UNL1       -0.4702
     29 C          61.7012   89.6385   11.9170 C.3     1  UNL1        0.2599
     30 C          62.4901   88.8047   10.9513 C.3     1  UNL1        0.0566
     31 C          60.4240   90.2899   11.4760 C.3     1  UNL1        0.4340
     32 F          59.1469   90.9414   11.0350 F       1  UNL1       -0.1664
     33 F          59.7418   89.7913   12.7153 F       1  UNL1       -0.1664
     34 F          61.1063   90.7886   10.2366 F       1  UNL1       -0.1664
@<TRIPOS>BOND
     1    11    12    1
     2    12    13   ar
     3    13    14   ar
     4    14     1    1
     5     1     2   ar
     6     2     3   ar
     7     3     4   ar
     8     4     5   ar
     9     4     6    1
    10     6     7    1
    11     7     8   am
    12     8     9    2
    13     8    18    1
    14    18    19   ar
    15    19    20   ar
    16    20    24    1
    17    24    25    1
    18    24    26    2
    19    24    27    2
    20    20    21   ar
    21    21    22   ar
    22    22    23   ar
    23    23    28    1
    24    28    29    1
    25    29    30    1
    26    29    31    1
    27    31    32    1
    28    31    33    1
    29    31    34    1
    30     7    10    1
    31    14    15   ar
    32    15    16   ar
    33    16    17   ar
    34    17    12   ar
    35     5     1   ar
    36    23    18   ar
    37    10     3    1
@<TRIPOS>MOLECULE
*****
 34 37 0 0 0
SMALL
GASTEIGER

@<TRIPOS>ATOM
      1 N          59.6445   89.1826    7.2424 N.ar    1  UNL1       -0.2286
      2 C          59.6435   87.6832    7.1984 C.ar    1  UNL1        0.0990
      3 C          60.4168   87.1843    8.3829 C.ar    1  UNL1        0.0338
      4 C          60.8957   88.3753    9.1590 C.ar    1  UNL1        0.0981
      5 N          60.4184   89.6103    8.4541 N.ar    1  UNL1       -0.1680
      6 C          61.6690   87.8763   10.3435 C.3     1  UNL1        0.1414
      7 N          61.6680   86.3769   10.2995 N.am    1  UNL1       -0.2660
      8 C          62.3255   85.4653   11.2928 C.2     1  UNL1        0.2525
      9 O          62.2395   83.9780   11.1173 O.2     1  UNL1       -0.2698
     10 C          60.8941   85.9493    9.0877 C.3     1  UNL1        0.1236
     11 C          60.0059   92.7557    3.4871 C.3     1  UNL1        0.0521
     12 C          59.1677   91.8809    4.3714 C.ar    1  UNL1        0.0609
     13 C          59.8251   90.9692    5.3647 C.ar    1  UNL1        0.0339
     14 C          58.9870   90.0942    6.2491 C.ar    1  UNL1        0.0855
     15 C          57.4915   90.1310    6.1401 C.ar    1  UNL1        0.0398
     16 C          56.8341   91.0427    5.1468 C.ar    1  UNL1        0.1000
     17 N          57.6722   91.9176    4.2624 N.ar    1  UNL1       -0.2480
     18 C          63.0689   86.0409   12.4615 C.ar    1  UNL1        0.0888
     19 C          63.1196   87.5268   12.6600 C.ar    1  UNL1        0.0259
     20 C          63.8631   88.1024   13.8289 C.ar    1  UNL1        0.1061
     21 C          64.5558   87.1921   14.7991 C.ar    1  UNL1        0.0215
     22 C          64.5051   85.7061   14.6006 C.ar    1  UNL1        0.0384
     23 C          63.7617   85.1306   13.4318 C.ar    1  UNL1        0.1432
     24 S          63.9137   89.5884   14.0273 S.O2    1  UNL1        0.0105
     25 C          63.9644   91.0743   14.2258 C.3     1  UNL1        0.1816
     26 O          63.9535   89.3885   15.5134 O.2     1  UNL1       -0.1686
     27 O          63.8739   89.7883   12.5412 O.2     1  UNL1       -0.1686
     28 O          63.7110   83.6446   13.2333 O.3     1  UNL1       -0.4702
     29 C          62.7619   82.8117   14.0430 C.3     1  UNL1        0.2599
     30 C          62.0957   83.3965   15.2531 C.3     1  UNL1        0.0566
     31 C          62.4790   81.3941   13.6426 C.3     1  UNL1        0.4340
     32 F          62.1963   79.9765   13.2422 F       1  UNL1       -0.1664
     33 F          61.2366   81.4047   14.4829 F       1  UNL1       -0.1664
     34 F          63.7216   81.3835   12.8023 F       1  UNL1       -0.1664
@<TRIPOS>BOND
     1    11    12    1
     2    12    13   ar
     3    13    14   ar
     4    14     1    1
     5     1     2   ar
     6     2     3   ar
     7     3     4   ar
     8     4     5   ar
     9     4     6    1
    10     6     7    1
    11     7     8   am
    12     8     9    2
    13     8    18    1
    14    18    19   ar
    15    19    20   ar
    16    20    24    1
    17    24    25    1
    18    24    26    2
    19    24    27    2
    20    20    21   ar
    21    21    22   ar
    22    22    23   ar
    23    23    28    1
    24    28    29    1
    25    29    30    1
    26    29    31    1
    27    31    32    1
    28    31    33    1
    29    31    34    1
    30     7    10    1
    31    14    15   ar
    32    15    16   ar
    33    16    17   ar
    34    17    12   ar
    35     5     1   ar
    36    23    18   ar
    37    10     3    1
@<TRIPOS>MOLECULE
*****
 34 37 0 0 0
SMALL
GASTEIGER

@<TRIPOS>ATOM
      1 N          63.0409   83.9900   13.9040 N.ar    1  UNL1       -0.2286
      2 C          63.4843   84.7923   15.0913 C.ar    1  UNL1        0.0990
      3 C          63.6888   86.2091   14.6430 C.ar    1  UNL1        0.0338
      4 C          63.3719   86.2824   13.1787 C.ar    1  UNL1        0.0981
      5 N          62.9715   84.9109   12.7219 N.ar    1  UNL1       -0.1680
      6 C          63.5765   87.6992   12.7305 C.3     1  UNL1        0.1414
      7 N          64.0198   88.5016   13.9178 N.am    1  UNL1       -0.2660
      8 C          64.3379   89.9674   13.9223 C.2     1  UNL1        0.2525
      9 O          64.7714   90.6369   15.1927 O.2     1  UNL1       -0.2698
     10 C          64.0893   87.5806   15.0998 C.3     1  UNL1        0.1236
     11 C          59.5768   80.1358   14.2850 C.3     1  UNL1        0.0521
     12 C          60.9907   80.5970   14.0899 C.ar    1  UNL1        0.0609
     13 C          61.3089   82.0629   14.0945 C.ar    1  UNL1        0.0339
     14 C          62.7228   82.5241   13.8994 C.ar    1  UNL1        0.0855
     15 C          63.8187   81.5195   13.6999 C.ar    1  UNL1        0.0398
     16 C          63.5005   80.0536   13.6954 C.ar    1  UNL1        0.1000
     17 N          62.0866   79.5923   13.8904 N.ar    1  UNL1       -0.2480
     18 C          64.2225   90.7638   12.6565 C.ar    1  UNL1        0.0888
     19 C          65.3393   91.6736   12.2384 C.ar    1  UNL1        0.0259
     20 C          65.2239   92.4701   10.9724 C.ar    1  UNL1        0.1061
     21 C          63.9917   92.3567   10.1247 C.ar    1  UNL1        0.0215
     22 C          62.8748   91.4468   10.5428 C.ar    1  UNL1        0.0384
     23 C          62.9902   90.6504   11.8086 C.ar    1  UNL1        0.1432
     24 S          66.3408   93.3799   10.5545 S.O2    1  UNL1        0.0105
     25 C          67.4576   94.2899   10.1365 C.3     1  UNL1        0.1816
     26 O          65.4989   94.5723   10.9005 O.2     1  UNL1       -0.1686
     27 O          67.1827   92.1877   10.2084 O.2     1  UNL1       -0.1686
     28 O          61.8734   89.7405   12.2267 O.3     1  UNL1       -0.4702
     29 C          60.6645   89.5861   11.3523 C.3     1  UNL1        0.2599
     30 C          59.4788   90.4842   11.5463 C.3     1  UNL1        0.0566
     31 C          60.6412   88.5337   10.2838 C.3     1  UNL1        0.4340
     32 F          60.6179   87.4811    9.2153 F       1  UNL1       -0.1664
     33 F          60.6283   89.6024    9.2313 F       1  UNL1       -0.1664
     34 F          60.6541   87.4649   11.3363 F       1  UNL1       -0.1664
@<TRIPOS>BOND
     1    11    12    1
     2    12    13   ar
     3    13    14   ar
     4    14     1    1
     5     1     2   ar
     6     2     3   ar
     7     3     4   ar
     8     4     5   ar
     9     4     6    1
    10     6     7    1
    11     7     8   am
    12     8     9    2
    13     8    18    1
    14    18    19   ar
    15    19    20   ar
    16    20    24    1
    17    24    25    1
    18    24    26    2
    19    24    27    2
    20    20    21   ar
    21    21    22   ar
    22    22    23   ar
    23    23    28    1
    24    28    29    1
    25    29    30    1
    26    29    31    1
    27    31    32    1
    28    31    33    1
    29    31    34    1
    30     7    10    1
    31    14    15   ar
    32    15    16   ar
    33    16    17   ar
    34    17    12   ar
    35     5     1   ar
    36    23    18   ar
    37    10     3    1
@<TRIPOS>MOLECULE
*****
 34 37 0 0 0
SMALL
GASTEIGER

@<TRIPOS>ATOM
      1 N          63.1968   82.7902   13.1310 N.ar    1  UNL1       -0.2286
      2 C          63.5210   83.2965   14.5052 C.ar    1  UNL1        0.0990
      3 C          63.6719   84.7868   14.4265 C.ar    1  UNL1        0.0338
      4 C          63.4411   85.2016   13.0035 C.ar    1  UNL1        0.0981
      5 N          63.1475   83.9676   12.2029 N.ar    1  UNL1       -0.1680
      6 C          63.5920   86.6919   12.9248 C.3     1  UNL1        0.1414
      7 N          63.9162   87.1982   14.2991 N.am    1  UNL1       -0.2660
      8 C          64.1499   88.6304   14.6786 C.2     1  UNL1        0.2525
      9 O          64.4667   88.9874   16.1007 O.2     1  UNL1       -0.2698
     10 C          63.9656   86.0208   15.2271 C.3     1  UNL1        0.1236
     11 C          62.9133   79.0866    9.4974 C.3     1  UNL1        0.0521
     12 C          62.8213   79.5062   10.9345 C.ar    1  UNL1        0.0609
     13 C          63.0551   80.9384   11.3142 C.ar    1  UNL1        0.0339
     14 C          62.9631   81.3580   12.7514 C.ar    1  UNL1        0.0855
     15 C          62.6374   80.3454   13.8089 C.ar    1  UNL1        0.0398
     16 C          62.4037   78.9131   13.4293 C.ar    1  UNL1        0.1000
     17 N          62.4957   78.4935   11.9921 N.ar    1  UNL1       -0.2480
     18 C          64.0669   89.7057   13.6362 C.ar    1  UNL1        0.0888
     19 C          63.0458   89.6117   12.5413 C.ar    1  UNL1        0.0259
     20 C          62.9628   90.6870   11.4988 C.ar    1  UNL1        0.1061
     21 C          63.9007   91.8564   11.5511 C.ar    1  UNL1        0.0215
     22 C          64.9218   91.9505   12.6460 C.ar    1  UNL1        0.0384
     23 C          65.0048   90.8752   13.6884 C.ar    1  UNL1        0.1432
     24 S          61.9417   90.5928   10.4040 S.O2    1  UNL1        0.0105
     25 C          60.9205   90.4986    9.3093 C.3     1  UNL1        0.1816
     26 O          61.0696   89.7531   11.2897 O.2     1  UNL1       -0.1686
     27 O          62.8137   91.4325    9.5183 O.2     1  UNL1       -0.1686
     28 O          66.0258   90.9693   14.7833 O.3     1  UNL1       -0.4702
     29 C          66.0426   92.1620   15.6927 C.3     1  UNL1        0.2599
     30 C          64.8839   92.4232   16.6087 C.3     1  UNL1        0.0566
     31 C          67.2182   93.0937   15.6860 C.3     1  UNL1        0.4340
     32 F          68.3937   94.0255   15.6792 F       1  UNL1       -0.1664
     33 F          67.8924   92.2506   16.7274 F       1  UNL1       -0.1664
     34 F          66.5439   93.9369   14.6445 F       1  UNL1       -0.1664
@<TRIPOS>BOND
     1    11    12    1
     2    12    13   ar
     3    13    14   ar
     4    14     1    1
     5     1     2   ar
     6     2     3   ar
     7     3     4   ar
     8     4     5   ar
     9     4     6    1
    10     6     7    1
    11     7     8   am
    12     8     9    2
    13     8    18    1
    14    18    19   ar
    15    19    20   ar
    16    20    24    1
    17    24    25    1
    18    24    26    2
    19    24    27    2
    20    20    21   ar
    21    21    22   ar
    22    22    23   ar
    23    23    28    1
    24    28    29    1
    25    29    30    1
    26    29    31    1
    27    31    32    1
    28    31    33    1
    29    31    34    1
    30     7    10    1
    31    14    15   ar
    32    15    16   ar
    33    16    17   ar
    34    17    12   ar
    35     5     1   ar
    36    23    18   ar
    37    10     3    1
