@<TRIPOS>MOLECULE
*****
 38 42 0 0 0
SMALL
GASTEIGER

@<TRIPOS>ATOM
      1 C          64.1599   88.5714   14.3764 C.3     1  UNL1        0.2330
      2 C          63.7661   87.7658   15.5789 C.ar    1  UNL1        0.0327
      3 C          63.1302   88.4404   16.7582 C.ar    1  UNL1       -0.0196
      4 C          62.8883   89.9206   16.7350 C.3     1  UNL1        0.0309
      5 C          62.7363   87.6348   17.9606 C.ar    1  UNL1        0.0162
      6 C          62.9783   86.1546   17.9838 C.ar    1  UNL1        0.0982
      7 N          63.6141   85.4800   16.8045 N.ar    1  UNL1       -0.2464
      8 C          64.0080   86.2856   15.6021 C.ar    1  UNL1        0.0811
      9 C          64.6438   85.6111   14.4228 C.3     1  UNL1        0.1545
     10 N          63.8124   84.7649   13.5046 N.ar    1  UNL1       -0.2884
     11 C          63.2662   85.3490   12.2356 C.ar    1  UNL1        0.0787
     12 C          62.4349   84.5029   11.3175 C.ar    1  UNL1        0.0188
     13 C          62.1499   83.0726   11.6683 C.ar    1  UNL1        0.0102
     14 C          62.6962   82.4884   12.9373 C.ar    1  UNL1        0.1274
     15 C          63.5275   83.3346   13.8555 C.ar    1  UNL1        0.2651
     16 O          64.0737   82.7505   15.1245 O.2     1  UNL1       -0.2670
     17 C          62.4112   81.0582   13.2881 C.3     1  UNL1        0.4230
     18 F          62.1262   79.6279   13.6390 F       1  UNL1       -0.1657
     19 F          63.5170   80.6144   12.3770 F       1  UNL1       -0.1657
     20 F          61.3054   81.5020   14.1992 F       1  UNL1       -0.1657
     21 O          63.1535   89.4583   13.7053 O.3     1  UNL1       -0.4691
     22 C          66.7846   92.7741   15.9572 C.3     1  UNL1        0.0521
     23 C          66.2025   92.6501   14.5802 C.ar    1  UNL1        0.0595
     24 C          66.6367   93.5902   13.4950 C.ar    1  UNL1        0.0160
     25 C          66.0546   93.4663   12.1182 C.ar    1  UNL1        0.0184
     26 C          65.0382   92.4023   11.8265 C.ar    1  UNL1        0.0219
     27 C          64.4561   92.2784   10.4496 C.ar    1  UNL1        0.0017
     28 C          63.4398   91.2145   10.1580 C.ar    1  UNL1        0.0032
     29 C          63.0056   90.2744   11.2432 C.ar    1  UNL1        0.0385
     30 C          63.5877   90.3983   12.6201 C.ar    1  UNL1        0.1565
     31 C          64.6040   91.4623   12.9117 C.ar    1  UNL1        0.1147
     32 N          65.1862   91.5862   14.2886 N.ar    1  UNL1       -0.2466
     33 C          66.4888   94.4064   11.0329 C.2     1  UNL1        0.0859
     34 N          66.0987   95.8493   10.9081 N.2     1  UNL1       -0.1523
     35 N          66.7582   96.4033    9.6800 N.2     1  UNL1       -0.1511
     36 C          67.5559   95.3027    9.0458 C.2     1  UNL1        0.1013
     37 C          67.3894   94.0685    9.8819 C.3     1  UNL1        0.0852
     38 C          68.0140   92.7313    9.6141 C.3     1  UNL1        0.0128
@<TRIPOS>BOND
     1    22    23    1
     2    23    24   ar
     3    24    25   ar
     4    25    33    1
     5    33    34    2
     6    34    35    1
     7    35    36    2
     8    36    37    1
     9    37    38    1
    10    25    26   ar
    11    26    27   ar
    12    27    28   ar
    13    28    29   ar
    14    29    30   ar
    15    30    21    1
    16    21     1    1
    17     1     2    1
    18     2     3   ar
    19     3     4    1
    20     3     5   ar
    21     5     6   ar
    22     6     7   ar
    23     7     8   ar
    24     8     9    1
    25     9    10    1
    26    10    11   ar
    27    11    12   ar
    28    12    13   ar
    29    13    14   ar
    30    14    17    1
    31    17    18    1
    32    17    19    1
    33    17    20    1
    34    14    15   ar
    35    15    16    2
    36    30    31   ar
    37    31    32   ar
    38    32    23   ar
    39    37    33    1
    40    31    26   ar
    41     8     2   ar
    42    15    10   ar
@<TRIPOS>MOLECULE
*****
 38 42 0 0 0
SMALL
GASTEIGER

@<TRIPOS>ATOM
      1 C          64.2139   88.6843   14.5173 C.3     1  UNL1        0.2330
      2 C          63.7805   87.7699   15.6246 C.ar    1  UNL1        0.0327
      3 C          63.0832   88.3291   16.8293 C.ar    1  UNL1       -0.0196
      4 C          62.8194   89.8024   16.9266 C.3     1  UNL1        0.0309
      5 C          62.6498   87.4148   17.9366 C.ar    1  UNL1        0.0162
      6 C          62.9137   85.9413   17.8393 C.ar    1  UNL1        0.0982
      7 N          63.6110   85.3823   16.6346 N.ar    1  UNL1       -0.2464
      8 C          64.0444   86.2966   15.5273 C.ar    1  UNL1        0.0811
      9 C          64.7416   85.7375   14.3226 C.3     1  UNL1        0.1545
     10 N          63.9732   84.9304   13.3185 N.ar    1  UNL1       -0.2884
     11 C          63.9904   83.4322   13.3893 C.ar    1  UNL1        0.0787
     12 C          63.2220   82.6250   12.3853 C.ar    1  UNL1        0.0188
     13 C          62.4364   83.3161   11.3104 C.ar    1  UNL1        0.0102
     14 C          62.4192   84.8144   11.2396 C.ar    1  UNL1        0.1274
     15 C          63.1877   85.6215   12.2437 C.ar    1  UNL1        0.2651
     16 O          63.1705   87.1197   12.1729 O.2     1  UNL1       -0.2670
     17 C          61.6337   85.5055   10.1648 C.3     1  UNL1        0.4230
     18 F          60.8482   86.1966    9.0900 F       1  UNL1       -0.1657
     19 F          62.5355   84.9114    9.1238 F       1  UNL1       -0.1657
     20 F          60.7319   86.0995   11.2059 F       1  UNL1       -0.1657
     21 O          63.2620   89.7085   13.9744 O.3     1  UNL1       -0.4691
     22 C          67.0679   93.0390   15.8909 C.3     1  UNL1        0.0521
     23 C          66.4241   92.8584   14.5482 C.ar    1  UNL1        0.0595
     24 C          66.8343   93.7278   13.3967 C.ar    1  UNL1        0.0160
     25 C          66.1905   93.5472   12.0540 C.ar    1  UNL1        0.0184
     26 C          65.1365   92.4972   11.8627 C.ar    1  UNL1        0.0219
     27 C          64.4927   92.3166   10.5200 C.ar    1  UNL1        0.0017
     28 C          63.4387   91.2667   10.3288 C.ar    1  UNL1        0.0032
     29 C          63.0284   90.3973   11.4803 C.ar    1  UNL1        0.0385
     30 C          63.6722   90.5779   12.8230 C.ar    1  UNL1        0.1565
     31 C          64.7262   91.6278   13.0142 C.ar    1  UNL1        0.1147
     32 N          65.3701   91.8085   14.3569 N.ar    1  UNL1       -0.2466
     33 C          66.6007   94.4166   10.9025 C.2     1  UNL1        0.0859
     34 N          66.2002   95.8465   10.6909 N.2     1  UNL1       -0.1523
     35 N          66.8354   96.3224    9.4181 N.2     1  UNL1       -0.1511
     36 C          67.6286   95.1865    8.8430 C.2     1  UNL1        0.1013
     37 C          67.4836   94.0087    9.7605 C.3     1  UNL1        0.0852
     38 C          68.1112   92.6598    9.5694 C.3     1  UNL1        0.0128
@<TRIPOS>BOND
     1    22    23    1
     2    23    24   ar
     3    24    25   ar
     4    25    33    1
     5    33    34    2
     6    34    35    1
     7    35    36    2
     8    36    37    1
     9    37    38    1
    10    25    26   ar
    11    26    27   ar
    12    27    28   ar
    13    28    29   ar
    14    29    30   ar
    15    30    21    1
    16    21     1    1
    17     1     2    1
    18     2     3   ar
    19     3     4    1
    20     3     5   ar
    21     5     6   ar
    22     6     7   ar
    23     7     8   ar
    24     8     9    1
    25     9    10    1
    26    10    11   ar
    27    11    12   ar
    28    12    13   ar
    29    13    14   ar
    30    14    17    1
    31    17    18    1
    32    17    19    1
    33    17    20    1
    34    14    15   ar
    35    15    16    2
    36    30    31   ar
    37    31    32   ar
    38    32    23   ar
    39    37    33    1
    40    31    26   ar
    41     8     2   ar
    42    15    10   ar
@<TRIPOS>MOLECULE
*****
 38 42 0 0 0
SMALL
GASTEIGER

@<TRIPOS>ATOM
      1 C          63.6739   91.1050   13.8997 C.3     1  UNL1        0.2330
      2 C          64.9165   91.8190   14.3425 C.ar    1  UNL1        0.0327
      3 C          65.2037   91.9878   15.8051 C.ar    1  UNL1       -0.0196
      4 C          64.2483   91.4426   16.8248 C.3     1  UNL1        0.0309
      5 C          66.4463   92.7019   16.2478 C.ar    1  UNL1        0.0162
      6 C          67.4018   93.2471   15.2280 C.ar    1  UNL1        0.0982
      7 N          67.1145   93.0783   13.7655 N.ar    1  UNL1       -0.2464
      8 C          65.8719   92.3642   13.3227 C.ar    1  UNL1        0.0811
      9 C          65.5847   92.1954   11.8602 C.3     1  UNL1        0.1545
     10 N          66.6012   92.6204   10.8423 N.ar    1  UNL1       -0.2884
     11 C          67.8159   91.7752   10.5972 C.ar    1  UNL1        0.0787
     12 C          68.8324   92.2001    9.5793 C.ar    1  UNL1        0.0188
     13 C          68.6342   93.4703    8.8064 C.ar    1  UNL1        0.0102
     14 C          67.4195   94.3156    9.0515 C.ar    1  UNL1        0.1274
     15 C          66.4030   93.8906   10.0694 C.ar    1  UNL1        0.2651
     16 O          65.1883   94.7358   10.3145 O.2     1  UNL1       -0.2670
     17 C          67.2213   95.5858    8.2787 C.3     1  UNL1        0.4230
     18 F          67.0230   96.8560    7.5059 F       1  UNL1       -0.1657
     19 F          67.8858   96.3589    9.3789 F       1  UNL1       -0.1657
     20 F          66.5567   94.8126    7.1784 F       1  UNL1       -0.1657
     21 O          63.7695   89.9637   12.9311 O.3     1  UNL1       -0.4691
     22 C          61.1452   86.8816    9.3444 C.3     1  UNL1        0.0521
     23 C          61.8782   86.5962   10.6217 C.ar    1  UNL1        0.0595
     24 C          61.9808   85.1884   11.1291 C.ar    1  UNL1        0.0160
     25 C          62.7138   84.9031   12.4063 C.ar    1  UNL1        0.0184
     26 C          63.3443   86.0256   13.1761 C.ar    1  UNL1        0.0219
     27 C          64.0773   85.7402   14.4533 C.ar    1  UNL1        0.0017
     28 C          64.7077   86.8627   15.2231 C.ar    1  UNL1        0.0032
     29 C          64.6051   88.2706   14.7157 C.ar    1  UNL1        0.0385
     30 C          63.8721   88.5559   13.4385 C.ar    1  UNL1        0.1565
     31 C          63.2417   87.4334   12.6687 C.ar    1  UNL1        0.1147
     32 N          62.5086   87.7187   11.3914 N.ar    1  UNL1       -0.2466
     33 C          62.8164   83.4952   12.9137 C.2     1  UNL1        0.0859
     34 N          62.1813   82.9596   14.1626 N.2     1  UNL1       -0.1523
     35 N          62.5445   81.5092   14.2821 N.2     1  UNL1       -0.1511
     36 C          63.4042   81.1483   13.1070 C.2     1  UNL1        0.1013
     37 C          63.5722   82.3758   12.2614 C.3     1  UNL1        0.0852
     38 C          64.3581   82.4676   10.9870 C.3     1  UNL1        0.0128
@<TRIPOS>BOND
     1    22    23    1
     2    23    24   ar
     3    24    25   ar
     4    25    33    1
     5    33    34    2
     6    34    35    1
     7    35    36    2
     8    36    37    1
     9    37    38    1
    10    25    26   ar
    11    26    27   ar
    12    27    28   ar
    13    28    29   ar
    14    29    30   ar
    15    30    21    1
    16    21     1    1
    17     1     2    1
    18     2     3   ar
    19     3     4    1
    20     3     5   ar
    21     5     6   ar
    22     6     7   ar
    23     7     8   ar
    24     8     9    1
    25     9    10    1
    26    10    11   ar
    27    11    12   ar
    28    12    13   ar
    29    13    14   ar
    30    14    17    1
    31    17    18    1
    32    17    19    1
    33    17    20    1
    34    14    15   ar
    35    15    16    2
    36    30    31   ar
    37    31    32   ar
    38    32    23   ar
    39    37    33    1
    40    31    26   ar
    41     8     2   ar
    42    15    10   ar
@<TRIPOS>MOLECULE
*****
 38 42 0 0 0
SMALL
GASTEIGER

@<TRIPOS>ATOM
      1 C          64.4906   88.5458   14.8908 C.3     1  UNL1        0.2330
      2 C          63.8055   87.5090   15.7309 C.ar    1  UNL1        0.0327
      3 C          63.0519   87.9189   16.9614 C.ar    1  UNL1       -0.0196
      4 C          62.9833   89.3656   17.3517 C.3     1  UNL1        0.0309
      5 C          62.3668   86.8821   17.8014 C.ar    1  UNL1        0.0162
      6 C          62.4354   85.4354   17.4110 C.ar    1  UNL1        0.0982
      7 N          63.1890   85.0255   16.1806 N.ar    1  UNL1       -0.2464
      8 C          63.8741   86.0623   15.3405 C.ar    1  UNL1        0.0811
      9 C          64.6277   85.6525   14.1101 C.3     1  UNL1        0.1545
     10 N          63.8963   85.0440   12.9504 N.ar    1  UNL1       -0.2884
     11 C          63.9465   83.5616   12.7264 C.ar    1  UNL1        0.0787
     12 C          63.2151   82.9531   11.5668 C.ar    1  UNL1        0.0188
     13 C          62.4334   83.8270   10.6312 C.ar    1  UNL1        0.0102
     14 C          62.3831   85.3093   10.8552 C.ar    1  UNL1        0.1274
     15 C          63.1146   85.9178   12.0149 C.ar    1  UNL1        0.2651
     16 O          63.0643   87.4001   12.2389 O.2     1  UNL1       -0.2670
     17 C          61.6014   86.1831    9.9196 C.3     1  UNL1        0.4230
     18 F          60.8198   87.0570    8.9840 F       1  UNL1       -0.1657
     19 F          62.6432   85.9802    8.8597 F       1  UNL1       -0.1657
     20 F          60.5597   86.3861   10.9795 F       1  UNL1       -0.1657
     21 O          64.2122   90.0015   15.1213 O.3     1  UNL1       -0.4691
     22 C          62.2492   90.3908   10.0968 C.3     1  UNL1        0.0521
     23 C          63.3623   91.0742   10.8345 C.ar    1  UNL1        0.0595
     24 C          64.1921   92.1151   10.1431 C.ar    1  UNL1        0.0160
     25 C          65.3051   92.7985   10.8807 C.ar    1  UNL1        0.0184
     26 C          65.5885   92.4409   12.3097 C.ar    1  UNL1        0.0219
     27 C          66.7015   93.1243   13.0472 C.ar    1  UNL1        0.0017
     28 C          66.9848   92.7668   14.4762 C.ar    1  UNL1        0.0032
     29 C          66.1551   91.7258   15.1675 C.ar    1  UNL1        0.0385
     30 C          65.0420   91.0425   14.4300 C.ar    1  UNL1        0.1565
     31 C          64.7587   91.4000   13.0010 C.ar    1  UNL1        0.1147
     32 N          63.6456   90.7166   12.2634 N.ar    1  UNL1       -0.2466
     33 C          66.1349   93.8394   10.1893 C.2     1  UNL1        0.0859
     34 N          65.8044   95.2981   10.0760 N.2     1  UNL1       -0.1523
     35 N          66.9061   95.9646    9.3065 N.2     1  UNL1       -0.1511
     36 C          67.9175   94.9178    8.9443 C.2     1  UNL1        0.1013
     37 C          67.4409   93.6044    9.4900 C.3     1  UNL1        0.0852
     38 C          68.1464   92.2871    9.3591 C.3     1  UNL1        0.0128
@<TRIPOS>BOND
     1    22    23    1
     2    23    24   ar
     3    24    25   ar
     4    25    33    1
     5    33    34    2
     6    34    35    1
     7    35    36    2
     8    36    37    1
     9    37    38    1
    10    25    26   ar
    11    26    27   ar
    12    27    28   ar
    13    28    29   ar
    14    29    30   ar
    15    30    21    1
    16    21     1    1
    17     1     2    1
    18     2     3   ar
    19     3     4    1
    20     3     5   ar
    21     5     6   ar
    22     6     7   ar
    23     7     8   ar
    24     8     9    1
    25     9    10    1
    26    10    11   ar
    27    11    12   ar
    28    12    13   ar
    29    13    14   ar
    30    14    17    1
    31    17    18    1
    32    17    19    1
    33    17    20    1
    34    14    15   ar
    35    15    16    2
    36    30    31   ar
    37    31    32   ar
    38    32    23   ar
    39    37    33    1
    40    31    26   ar
    41     8     2   ar
    42    15    10   ar
@<TRIPOS>MOLECULE
*****
 38 42 0 0 0
SMALL
GASTEIGER

@<TRIPOS>ATOM
      1 C          64.4664   88.6693   14.9234 C.3     1  UNL1        0.2330
      2 C          63.8011   87.6476   15.7972 C.ar    1  UNL1        0.0327
      3 C          63.0787   88.0790   17.0391 C.ar    1  UNL1       -0.0196
      4 C          63.0215   89.5320   17.4070 C.3     1  UNL1        0.0309
      5 C          62.4134   87.0573   17.9129 C.ar    1  UNL1        0.0162
      6 C          62.4705   85.6043   17.5449 C.ar    1  UNL1        0.0982
      7 N          63.1929   85.1729   16.3031 N.ar    1  UNL1       -0.2464
      8 C          63.8582   86.1946   15.4293 C.ar    1  UNL1        0.0811
      9 C          64.5806   85.7632   14.1876 C.3     1  UNL1        0.1545
     10 N          63.8034   85.3366   12.9776 N.ar    1  UNL1       -0.2884
     11 C          62.9886   86.3406   12.2173 C.ar    1  UNL1        0.0787
     12 C          62.2114   85.9141   11.0073 C.ar    1  UNL1        0.0188
     13 C          62.2489   84.4835   10.5577 C.ar    1  UNL1        0.0102
     14 C          63.0638   83.4795   11.3180 C.ar    1  UNL1        0.1274
     15 C          63.8410   83.9061   12.5280 C.ar    1  UNL1        0.2651
     16 O          64.6558   82.9021   13.2883 O.2     1  UNL1       -0.2670
     17 C          63.1014   82.0490   10.8684 C.3     1  UNL1        0.4230
     18 F          63.1390   80.6185   10.4188 F       1  UNL1       -0.1657
     19 F          62.1346   81.6821   11.9549 F       1  UNL1       -0.1657
     20 F          64.0681   82.4160    9.7818 F       1  UNL1       -0.1657
     21 O          64.1770   90.1277   15.1209 O.3     1  UNL1       -0.4691
     22 C          62.2470   90.4725   10.0804 C.3     1  UNL1        0.0521
     23 C          63.3574   91.1601   10.8183 C.ar    1  UNL1        0.0595
     24 C          64.1944   92.1918   10.1220 C.ar    1  UNL1        0.0160
     25 C          65.3047   92.8794   10.8598 C.ar    1  UNL1        0.0184
     26 C          65.5780   92.5353   12.2941 C.ar    1  UNL1        0.0219
     27 C          66.6882   93.2229   13.0319 C.ar    1  UNL1        0.0017
     28 C          66.9614   92.8788   14.4661 C.ar    1  UNL1        0.0032
     29 C          66.1244   91.8471   15.1624 C.ar    1  UNL1        0.0385
     30 C          65.0141   91.1595   14.4246 C.ar    1  UNL1        0.1565
     31 C          64.7409   91.5036   12.9904 C.ar    1  UNL1        0.1147
     32 N          63.6306   90.8160   12.2525 N.ar    1  UNL1       -0.2466
     33 C          66.1418   93.9111   10.1635 C.2     1  UNL1        0.0859
     34 N          65.8157   95.3694   10.0329 N.2     1  UNL1       -0.1523
     35 N          66.9243   96.0253    9.2642 N.2     1  UNL1       -0.1511
     36 C          67.9355   94.9723    8.9197 C.2     1  UNL1        0.1013
     37 C          67.4519   93.6657    9.4755 C.3     1  UNL1        0.0852
     38 C          68.1550   92.3455    9.3630 C.3     1  UNL1        0.0128
@<TRIPOS>BOND
     1    22    23    1
     2    23    24   ar
     3    24    25   ar
     4    25    33    1
     5    33    34    2
     6    34    35    1
     7    35    36    2
     8    36    37    1
     9    37    38    1
    10    25    26   ar
    11    26    27   ar
    12    27    28   ar
    13    28    29   ar
    14    29    30   ar
    15    30    21    1
    16    21     1    1
    17     1     2    1
    18     2     3   ar
    19     3     4    1
    20     3     5   ar
    21     5     6   ar
    22     6     7   ar
    23     7     8   ar
    24     8     9    1
    25     9    10    1
    26    10    11   ar
    27    11    12   ar
    28    12    13   ar
    29    13    14   ar
    30    14    17    1
    31    17    18    1
    32    17    19    1
    33    17    20    1
    34    14    15   ar
    35    15    16    2
    36    30    31   ar
    37    31    32   ar
    38    32    23   ar
    39    37    33    1
    40    31    26   ar
    41     8     2   ar
    42    15    10   ar
@<TRIPOS>MOLECULE
*****
 38 42 0 0 0
SMALL
GASTEIGER

@<TRIPOS>ATOM
      1 C          64.1176   87.6369   13.8619 C.3     1  UNL1        0.2330
      2 C          63.4922   86.4225   14.4817 C.ar    1  UNL1        0.0327
      3 C          63.1399   86.4218   15.9398 C.ar    1  UNL1       -0.0196
      4 C          63.4131   87.6353   16.7780 C.3     1  UNL1        0.0309
      5 C          62.5145   85.2074   16.5597 C.ar    1  UNL1        0.0162
      6 C          62.2413   83.9938   15.7214 C.ar    1  UNL1        0.0982
      7 N          62.5935   83.9946   14.2634 N.ar    1  UNL1       -0.2464
      8 C          63.2190   85.2090   13.6436 C.ar    1  UNL1        0.0811
      9 C          63.5712   85.2097   12.1855 C.3     1  UNL1        0.1545
     10 N          62.5805   85.7068   11.1748 N.ar    1  UNL1       -0.2884
     11 C          61.5349   86.7043   11.5772 C.ar    1  UNL1        0.0787
     12 C          60.5443   87.2015   10.5666 C.ar    1  UNL1        0.0188
     13 C          60.5990   86.7011    9.1536 C.ar    1  UNL1        0.0102
     14 C          61.6446   85.7036    8.7512 C.ar    1  UNL1        0.1274
     15 C          62.6353   85.2065    9.7619 C.ar    1  UNL1        0.2651
     16 O          63.6808   84.2090    9.3595 O.2     1  UNL1       -0.2670
     17 C          61.6994   85.2032    7.3382 C.3     1  UNL1        0.4230
     18 F          61.7542   84.7029    5.9252 F       1  UNL1       -0.1657
     19 F          63.1983   85.2285    7.3874 F       1  UNL1       -0.1657
     20 F          60.2004   85.1780    7.2890 F       1  UNL1       -0.1657
     21 O          63.3717   88.9381   13.8436 O.3     1  UNL1       -0.4691
     22 C          67.3533   92.1104   15.6694 C.3     1  UNL1        0.0521
     23 C          66.5566   92.0682   14.3991 C.ar    1  UNL1        0.0595
     24 C          66.8216   93.0694   13.3140 C.ar    1  UNL1        0.0160
     25 C          66.0250   93.0272   12.0438 C.ar    1  UNL1        0.0184
     26 C          64.9633   91.9838   11.8586 C.ar    1  UNL1        0.0219
     27 C          64.1667   91.9417   10.5883 C.ar    1  UNL1        0.0017
     28 C          63.1051   90.8983   10.4032 C.ar    1  UNL1        0.0032
     29 C          62.8401   89.8971   11.4882 C.ar    1  UNL1        0.0385
     30 C          63.6367   89.9393   12.7585 C.ar    1  UNL1        0.1565
     31 C          64.6983   90.9826   12.9437 C.ar    1  UNL1        0.1147
     32 N          65.4950   91.0249   14.2140 N.ar    1  UNL1       -0.2466
     33 C          66.2900   94.0284   10.9587 C.2     1  UNL1        0.0859
     34 N          65.6705   95.3897   10.8446 N.2     1  UNL1       -0.1523
     35 N          66.2186   96.0467    9.6126 N.2     1  UNL1       -0.1511
     36 C          67.1769   95.0915    8.9652 C.2     1  UNL1        0.1013
     37 C          67.2210   93.8441    9.7972 C.3     1  UNL1        0.0852
     38 C          68.0506   92.6262    9.5168 C.3     1  UNL1        0.0128
@<TRIPOS>BOND
     1    22    23    1
     2    23    24   ar
     3    24    25   ar
     4    25    33    1
     5    33    34    2
     6    34    35    1
     7    35    36    2
     8    36    37    1
     9    37    38    1
    10    25    26   ar
    11    26    27   ar
    12    27    28   ar
    13    28    29   ar
    14    29    30   ar
    15    30    21    1
    16    21     1    1
    17     1     2    1
    18     2     3   ar
    19     3     4    1
    20     3     5   ar
    21     5     6   ar
    22     6     7   ar
    23     7     8   ar
    24     8     9    1
    25     9    10    1
    26    10    11   ar
    27    11    12   ar
    28    12    13   ar
    29    13    14   ar
    30    14    17    1
    31    17    18    1
    32    17    19    1
    33    17    20    1
    34    14    15   ar
    35    15    16    2
    36    30    31   ar
    37    31    32   ar
    38    32    23   ar
    39    37    33    1
    40    31    26   ar
    41     8     2   ar
    42    15    10   ar
@<TRIPOS>MOLECULE
*****
 38 42 0 0 0
SMALL
GASTEIGER

@<TRIPOS>ATOM
      1 C          64.2357   87.8649   13.8967 C.3     1  UNL1        0.2330
      2 C          63.6496   86.4933   13.7380 C.ar    1  UNL1        0.0327
      3 C          63.7854   85.4873   14.8425 C.ar    1  UNL1       -0.0196
      4 C          64.5071   85.8530   16.1055 C.3     1  UNL1        0.0309
      5 C          63.1993   84.1157   14.6838 C.ar    1  UNL1        0.0162
      6 C          62.4775   83.7500   13.4207 C.ar    1  UNL1        0.0982
      7 N          62.3418   84.7560   12.3163 N.ar    1  UNL1       -0.2464
      8 C          62.9278   86.1276   12.4750 C.ar    1  UNL1        0.0811
      9 C          62.7921   87.1335   11.3707 C.3     1  UNL1        0.1545
     10 N          62.1996   86.7266   10.0541 N.ar    1  UNL1       -0.2884
     11 C          62.8068   85.5975    9.2753 C.ar    1  UNL1        0.0787
     12 C          62.2144   85.1905    7.9588 C.ar    1  UNL1        0.0188
     13 C          61.0147   85.9127    7.4209 C.ar    1  UNL1        0.0102
     14 C          60.4074   87.0418    8.1996 C.ar    1  UNL1        0.1274
     15 C          61.0000   87.4487    9.5163 C.ar    1  UNL1        0.2651
     16 O          60.3928   88.5778   10.2950 O.2     1  UNL1       -0.2670
     17 C          59.2078   87.7639    7.6618 C.3     1  UNL1        0.4230
     18 F          58.0081   88.4861    7.1240 F       1  UNL1       -0.1657
     19 F          60.0559   88.9710    7.3907 F       1  UNL1       -0.1657
     20 F          58.3596   86.5568    7.9330 F       1  UNL1       -0.1657
     21 O          63.3598   89.0750   13.7612 O.3     1  UNL1       -0.4691
     22 C          67.1006   92.2749   16.0013 C.3     1  UNL1        0.0521
     23 C          66.4056   92.2599   14.6720 C.ar    1  UNL1        0.0595
     24 C          66.7259   93.3066   13.6464 C.ar    1  UNL1        0.0160
     25 C          66.0310   93.2916   12.3172 C.ar    1  UNL1        0.0184
     26 C          65.0157   92.2300   12.0136 C.ar    1  UNL1        0.0219
     27 C          64.3208   92.2150   10.6844 C.ar    1  UNL1        0.0017
     28 C          63.3055   91.1534   10.3808 C.ar    1  UNL1        0.0032
     29 C          62.9852   90.1067   11.4064 C.ar    1  UNL1        0.0385
     30 C          63.6802   90.1217   12.7356 C.ar    1  UNL1        0.1565
     31 C          64.6954   91.1833   13.0392 C.ar    1  UNL1        0.1147
     32 N          65.3904   91.1983   14.3684 N.ar    1  UNL1       -0.2466
     33 C          66.3513   94.3383   11.2916 C.2     1  UNL1        0.0859
     34 N          65.9012   95.7689   11.3214 N.2     1  UNL1       -0.1523
     35 N          66.4497   96.4529   10.1043 N.2     1  UNL1       -0.1511
     36 C          67.2387   95.4450    9.3222 C.2     1  UNL1        0.1013
     37 C          67.1779   94.1382   10.0560 C.3     1  UNL1        0.0852
     38 C          67.8294   92.8562    9.6291 C.3     1  UNL1        0.0128
@<TRIPOS>BOND
     1    22    23    1
     2    23    24   ar
     3    24    25   ar
     4    25    33    1
     5    33    34    2
     6    34    35    1
     7    35    36    2
     8    36    37    1
     9    37    38    1
    10    25    26   ar
    11    26    27   ar
    12    27    28   ar
    13    28    29   ar
    14    29    30   ar
    15    30    21    1
    16    21     1    1
    17     1     2    1
    18     2     3   ar
    19     3     4    1
    20     3     5   ar
    21     5     6   ar
    22     6     7   ar
    23     7     8   ar
    24     8     9    1
    25     9    10    1
    26    10    11   ar
    27    11    12   ar
    28    12    13   ar
    29    13    14   ar
    30    14    17    1
    31    17    18    1
    32    17    19    1
    33    17    20    1
    34    14    15   ar
    35    15    16    2
    36    30    31   ar
    37    31    32   ar
    38    32    23   ar
    39    37    33    1
    40    31    26   ar
    41     8     2   ar
    42    15    10   ar
@<TRIPOS>MOLECULE
*****
 38 42 0 0 0
SMALL
GASTEIGER

@<TRIPOS>ATOM
      1 C          61.1977   88.8135   11.4379 C.3     1  UNL1        0.2330
      2 C          60.8587   87.9664   10.2472 C.ar    1  UNL1        0.0327
      3 C          60.1426   88.5711    9.0761 C.ar    1  UNL1       -0.0196
      4 C          59.7654   90.0227    9.0955 C.3     1  UNL1        0.0309
      5 C          59.8036   87.7240    7.8854 C.ar    1  UNL1        0.0162
      6 C          60.1808   86.2723    7.8660 C.ar    1  UNL1        0.0982
      7 N          60.8969   85.6677    9.0371 N.ar    1  UNL1       -0.2464
      8 C          61.2358   86.5147   10.2278 C.ar    1  UNL1        0.0811
      9 C          61.9519   85.9102   11.3989 C.3     1  UNL1        0.1545
     10 N          62.7000   84.6201   11.2362 N.ar    1  UNL1       -0.2884
     11 C          63.4584   84.3474    9.9711 C.ar    1  UNL1        0.0787
     12 C          64.2064   83.0575    9.8084 C.ar    1  UNL1        0.0188
     13 C          64.1959   82.0402   10.9107 C.ar    1  UNL1        0.0102
     14 C          63.4375   82.3129   12.1758 C.ar    1  UNL1        0.1274
     15 C          62.6895   83.6029   12.3385 C.ar    1  UNL1        0.2651
     16 O          61.9310   83.8756   13.6035 O.2     1  UNL1       -0.2670
     17 C          63.4270   81.2957   13.2781 C.3     1  UNL1        0.4230
     18 F          63.4165   80.2785   14.3804 F       1  UNL1       -0.1657
     19 F          62.6296   80.3658   12.4124 F       1  UNL1       -0.1657
     20 F          64.2243   82.2256   14.1438 F       1  UNL1       -0.1657
     21 O          61.3932   90.2917   11.2754 O.3     1  UNL1       -0.4691
     22 C          63.0950   89.0388   16.2538 C.3     1  UNL1        0.0521
     23 C          63.6976   89.7978   15.1088 C.ar    1  UNL1        0.0595
     24 C          65.0684   90.3922   15.2418 C.ar    1  UNL1        0.0160
     25 C          65.6710   91.1512   14.0969 C.ar    1  UNL1        0.0184
     26 C          64.9029   91.3158   12.8190 C.ar    1  UNL1        0.0219
     27 C          65.5055   92.0748   11.6742 C.ar    1  UNL1        0.0017
     28 C          64.7374   92.2395   10.3964 C.ar    1  UNL1        0.0032
     29 C          63.3666   91.6451   10.2635 C.ar    1  UNL1        0.0385
     30 C          62.7639   90.8861   11.4083 C.ar    1  UNL1        0.1565
     31 C          63.5321   90.7215   12.6861 C.ar    1  UNL1        0.1147
     32 N          62.9295   89.9624   13.8310 N.ar    1  UNL1       -0.2466
     33 C          67.0418   91.7455   14.2299 C.2     1  UNL1        0.0859
     34 N          68.1474   91.6465   13.2210 N.2     1  UNL1       -0.1523
     35 N          69.3366   92.3830   13.7626 N.2     1  UNL1       -0.1511
     36 C          68.9660   92.9373   15.1063 C.2     1  UNL1        0.1013
     37 C          67.5477   92.5433   15.3950 C.3     1  UNL1        0.0852
     38 C          66.7716   92.8869   16.6318 C.3     1  UNL1        0.0128
@<TRIPOS>BOND
     1    22    23    1
     2    23    24   ar
     3    24    25   ar
     4    25    33    1
     5    33    34    2
     6    34    35    1
     7    35    36    2
     8    36    37    1
     9    37    38    1
    10    25    26   ar
    11    26    27   ar
    12    27    28   ar
    13    28    29   ar
    14    29    30   ar
    15    30    21    1
    16    21     1    1
    17     1     2    1
    18     2     3   ar
    19     3     4    1
    20     3     5   ar
    21     5     6   ar
    22     6     7   ar
    23     7     8   ar
    24     8     9    1
    25     9    10    1
    26    10    11   ar
    27    11    12   ar
    28    12    13   ar
    29    13    14   ar
    30    14    17    1
    31    17    18    1
    32    17    19    1
    33    17    20    1
    34    14    15   ar
    35    15    16    2
    36    30    31   ar
    37    31    32   ar
    38    32    23   ar
    39    37    33    1
    40    31    26   ar
    41     8     2   ar
    42    15    10   ar
@<TRIPOS>MOLECULE
*****
 38 42 0 0 0
SMALL
GASTEIGER

@<TRIPOS>ATOM
      1 C          61.4475   86.6113   11.3494 C.3     1  UNL1        0.2330
      2 C          61.6222   86.0676    9.9624 C.ar    1  UNL1        0.0327
      3 C          60.6714   86.4695    8.8740 C.ar    1  UNL1       -0.0196
      4 C          59.5460   87.4152    9.1726 C.3     1  UNL1        0.0309
      5 C          60.8460   85.9258    7.4870 C.ar    1  UNL1        0.0162
      6 C          61.9714   84.9800    7.1883 C.ar    1  UNL1        0.0982
      7 N          62.9221   84.5781    8.2767 N.ar    1  UNL1       -0.2464
      8 C          62.7475   85.1219    9.6637 C.ar    1  UNL1        0.0811
      9 C          63.6982   84.7200   10.7521 C.3     1  UNL1        0.1545
     10 N          63.1925   83.9770   11.9531 N.ar    1  UNL1       -0.2884
     11 C          62.7105   82.5636   11.8125 C.ar    1  UNL1        0.0787
     12 C          62.2048   81.8206   13.0134 C.ar    1  UNL1        0.0188
     13 C          62.1812   82.4911   14.3551 C.ar    1  UNL1        0.0102
     14 C          62.6633   83.9046   14.4957 C.ar    1  UNL1        0.1274
     15 C          63.1690   84.6475   13.2947 C.ar    1  UNL1        0.2651
     16 O          63.6510   86.0610   13.4353 O.2     1  UNL1       -0.2670
     17 C          62.6397   84.5751   15.8372 C.3     1  UNL1        0.4230
     18 F          62.6161   85.2456   17.1788 F       1  UNL1       -0.1657
     19 F          61.1698   84.8310   15.6835 F       1  UNL1       -0.1657
     20 F          64.1097   84.3192   15.9910 F       1  UNL1       -0.1657
     21 O          60.9720   88.0200   11.5484 O.3     1  UNL1       -0.4691
     22 C          63.2138   88.7308   16.4187 C.3     1  UNL1        0.0521
     23 C          63.3732   89.4106   15.0910 C.ar    1  UNL1        0.0595
     24 C          64.3329   90.5540   14.9443 C.ar    1  UNL1        0.0160
     25 C          64.4923   91.2338   13.6168 C.ar    1  UNL1        0.0184
     26 C          63.6919   90.7703   12.4358 C.ar    1  UNL1        0.0219
     27 C          63.8513   91.4501   11.1083 C.ar    1  UNL1        0.0017
     28 C          63.0510   90.9865    9.9275 C.ar    1  UNL1        0.0032
     29 C          62.0912   89.8431   10.0741 C.ar    1  UNL1        0.0385
     30 C          61.9318   89.1633   11.4017 C.ar    1  UNL1        0.1565
     31 C          62.7322   89.6269   12.5825 C.ar    1  UNL1        0.1147
     32 N          62.5728   88.9471   13.9102 N.ar    1  UNL1       -0.2466
     33 C          65.4521   92.3772   13.4701 C.2     1  UNL1        0.0859
     34 N          65.7531   93.1185   12.2013 N.2     1  UNL1       -0.1523
     35 N          66.7664   94.1795   12.5135 N.2     1  UNL1       -0.1511
     36 C          67.0917   94.0940   13.9753 C.2     1  UNL1        0.1013
     37 C          66.2794   92.9801   14.5665 C.3     1  UNL1        0.0852
     38 C          66.2922   92.5455   16.0021 C.3     1  UNL1        0.0128
@<TRIPOS>BOND
     1    22    23    1
     2    23    24   ar
     3    24    25   ar
     4    25    33    1
     5    33    34    2
     6    34    35    1
     7    35    36    2
     8    36    37    1
     9    37    38    1
    10    25    26   ar
    11    26    27   ar
    12    27    28   ar
    13    28    29   ar
    14    29    30   ar
    15    30    21    1
    16    21     1    1
    17     1     2    1
    18     2     3   ar
    19     3     4    1
    20     3     5   ar
    21     5     6   ar
    22     6     7   ar
    23     7     8   ar
    24     8     9    1
    25     9    10    1
    26    10    11   ar
    27    11    12   ar
    28    12    13   ar
    29    13    14   ar
    30    14    17    1
    31    17    18    1
    32    17    19    1
    33    17    20    1
    34    14    15   ar
    35    15    16    2
    36    30    31   ar
    37    31    32   ar
    38    32    23   ar
    39    37    33    1
    40    31    26   ar
    41     8     2   ar
    42    15    10   ar
