@<TRIPOS>MOLECULE
*****
 41 45 0 0 0
SMALL
GASTEIGER

@<TRIPOS>ATOM
      1 C          61.4836   86.8180    8.7558 C.3     1  UNL1        0.0758
      2 C          61.3962   88.2522    9.1862 C.3     1  UNL1        0.0370
      3 C          60.3487   89.1496    8.5969 C.3     1  UNL1        0.0741
      4 N          59.3885   88.6128    7.5772 N.3     1  UNL1       -0.2688
      5 C          59.4758   87.1785    7.1468 C.3     1  UNL1        0.0741
      6 C          60.5234   86.2811    7.7361 C.3     1  UNL1        0.0370
      7 O          61.1966   85.8251   11.5722 O.2     1  UNL1       -0.2528
      8 C          62.3876   85.4241   10.7533 C.2     1  UNL1        0.3012
      9 N          62.5311   85.9205    9.3451 N.am    1  UNL1       -0.2905
     10 N          63.4352   84.5266   11.3426 N.am    1  UNL1       -0.2805
     11 H          63.3129   85.6573    8.8077 H       1  UNL1        0.1509
     12 H          64.2169   84.2634   10.8051 H       1  UNL1        0.1516
     13 C          63.2917   84.0302   12.7507 C.3     1  UNL1        0.1526
     14 C          62.8204   82.6295   13.0078 C.ar    1  UNL1        0.0027
     15 C          63.2625   81.5127   12.1092 C.ar    1  UNL1       -0.0023
     16 C          62.7912   80.1120   12.3663 C.ar    1  UNL1       -0.0003
     17 C          61.8780   79.8282   13.5218 C.ar    1  UNL1       -0.0000
     18 C          61.4359   80.9449   14.4204 C.ar    1  UNL1       -0.0003
     19 C          61.9072   82.3457   14.1633 C.ar    1  UNL1       -0.0023
     20 C          63.6194   84.9344   13.9018 C.ar    1  UNL1        0.1395
     21 N          63.7405   86.4283   13.8428 N.ar    1  UNL1       -0.2275
     22 C          64.0795   86.9206   15.2185 C.ar    1  UNL1        0.1187
     23 C          64.1680   85.7310   16.1278 C.ar    1  UNL1        0.0943
     24 N          63.8837   84.5034   15.3140 N.ar    1  UNL1       -0.3380
     25 H          63.8724   83.5774   15.6482 H       1  UNL1        0.1672
     26 C          58.3409   89.5102    6.9879 C.3     1  UNL1        0.1007
     27 C          58.6985   90.4505    5.8753 C.ar    1  UNL1        0.0129
     28 C          57.7442   91.3305    5.1237 C.ar    1  UNL1        0.0176
     29 C          58.5290   92.0998    4.1028 C.ar    1  UNL1        0.0799
     30 N          59.9684   91.6953    4.2234 N.ar    1  UNL1       -0.3038
     31 C          60.0731   90.6760    5.3188 C.ar    1  UNL1        0.0772
     32 C          61.1036   92.2182    3.3942 C.ar    1  UNL1        0.0640
     33 C          60.9091   93.4343    2.5380 C.ar    1  UNL1        0.0175
     34 C          62.0443   93.9573    1.7088 C.ar    1  UNL1        0.0053
     35 C          63.3742   93.2641    1.7357 C.ar    1  UNL1        0.0715
     36 C          63.5688   92.0479    2.5918 C.ar    1  UNL1        0.0053
     37 C          62.4336   91.5249    3.4210 C.ar    1  UNL1        0.0175
     38 C          64.5094   93.7870    0.9064 C.3     1  UNL1        0.4186
     39 F          65.6448   94.3100    0.0772 F       1  UNL1       -0.1659
     40 F          63.8728   93.2154   -0.3256 F       1  UNL1       -0.1659
     41 F          65.1462   94.3586    2.1385 F       1  UNL1       -0.1659
@<TRIPOS>BOND
     1     7     8    2
     2     8     9   am
     3     9     1    1
     4     1     2    1
     5     2     3    1
     6     3     4    1
     7     4    26    1
     8    26    27    1
     9    27    28   ar
    10    28    29   ar
    11    29    30   ar
    12    30    32    1
    13    32    33   ar
    14    33    34   ar
    15    34    35   ar
    16    35    38    1
    17    38    39    1
    18    38    40    1
    19    38    41    1
    20    35    36   ar
    21    36    37   ar
    22    30    31   ar
    23     4     5    1
    24     5     6    1
    25     8    10   am
    26    10    13    1
    27    13    14    1
    28    14    15   ar
    29    15    16   ar
    30    16    17   ar
    31    17    18   ar
    32    18    19   ar
    33    13    20    1
    34    20    21   ar
    35    21    22   ar
    36    22    23   ar
    37    23    24   ar
    38     6     1    1
    39    19    14   ar
    40    24    20   ar
    41    31    27   ar
    42    37    32   ar
    43     9    11    1
    44    10    12    1
    45    24    25    1
@<TRIPOS>MOLECULE
*****
 41 45 0 0 0
SMALL
GASTEIGER

@<TRIPOS>ATOM
      1 C          59.4895   92.3778    4.1357 C.3     1  UNL1        0.0758
      2 C          58.0822   92.0350    4.5251 C.3     1  UNL1        0.0370
      3 C          57.8157   90.8556    5.4127 C.3     1  UNL1        0.0741
      4 N          58.9567   90.0189    5.9110 N.3     1  UNL1       -0.2688
      5 C          60.3641   90.3618    5.5216 C.3     1  UNL1        0.0741
      6 C          60.6305   91.5412    4.6340 C.3     1  UNL1        0.0370
      7 O          59.6878   92.0055    1.1655 O.2     1  UNL1       -0.2528
      8 C          59.8551   93.3711    1.7630 C.2     1  UNL1        0.3012
      9 N          59.7560   93.5573    3.2481 N.am    1  UNL1       -0.2905
     10 N          60.1216   94.5506    0.8753 N.am    1  UNL1       -0.2805
     11 H          59.8659   94.4536    3.6402 H       1  UNL1        0.1509
     12 H          60.2314   95.4469    1.2675 H       1  UNL1        0.1516
     13 C          60.2207   94.3644   -0.6097 C.3     1  UNL1        0.1526
     14 C          58.9935   94.0385   -1.4082 C.ar    1  UNL1        0.0027
     15 C          57.6519   94.5365   -0.9586 C.ar    1  UNL1       -0.0023
     16 C          56.4247   94.2106   -1.7571 C.ar    1  UNL1       -0.0003
     17 C          56.5390   93.3866   -3.0053 C.ar    1  UNL1       -0.0000
     18 C          57.8805   92.8886   -3.4550 C.ar    1  UNL1       -0.0003
     19 C          59.1078   93.2145   -2.6565 C.ar    1  UNL1       -0.0023
     20 C          61.5470   94.5041   -1.2963 C.ar    1  UNL1        0.1395
     21 N          61.9358   95.5951   -2.2495 N.ar    1  UNL1       -0.2275
     22 C          63.3465   95.3427   -2.6925 C.ar    1  UNL1        0.1187
     23 C          63.8296   94.0956   -2.0131 C.ar    1  UNL1        0.0943
     24 N          62.7174   93.5774   -1.1502 N.ar    1  UNL1       -0.3380
     25 H          62.7499   92.7707   -0.5869 H       1  UNL1        0.1672
     26 C          58.6903   88.8395    6.7986 C.3     1  UNL1        0.1007
     27 C          59.6679   88.4761    7.8766 C.ar    1  UNL1        0.0129
     28 C          60.2600   89.4170    8.8836 C.ar    1  UNL1        0.0176
     29 C          61.1831   88.6304    9.7663 C.ar    1  UNL1        0.0799
     30 N          61.1615   87.2033    9.3048 N.ar    1  UNL1       -0.3038
     31 C          60.2251   87.1079    8.1370 C.ar    1  UNL1        0.0772
     32 C          61.9398   86.0705    9.9058 C.ar    1  UNL1        0.0640
     33 C          62.8038   85.2084    9.0339 C.ar    1  UNL1        0.0175
     34 C          63.5820   84.0757    9.6348 C.ar    1  UNL1        0.0053
     35 C          63.4962   83.8049   11.1076 C.ar    1  UNL1        0.0715
     36 C          62.6322   84.6669   11.9795 C.ar    1  UNL1        0.0053
     37 C          61.8540   85.7997   11.3786 C.ar    1  UNL1        0.0175
     38 C          64.2744   82.6721   11.7085 C.3     1  UNL1        0.4186
     39 F          65.0527   81.5394   12.3095 F       1  UNL1       -0.1659
     40 F          63.9067   81.8016   10.5436 F       1  UNL1       -0.1659
     41 F          64.6422   83.5427   12.8734 F       1  UNL1       -0.1659
@<TRIPOS>BOND
     1     7     8    2
     2     8     9   am
     3     9     1    1
     4     1     2    1
     5     2     3    1
     6     3     4    1
     7     4    26    1
     8    26    27    1
     9    27    28   ar
    10    28    29   ar
    11    29    30   ar
    12    30    32    1
    13    32    33   ar
    14    33    34   ar
    15    34    35   ar
    16    35    38    1
    17    38    39    1
    18    38    40    1
    19    38    41    1
    20    35    36   ar
    21    36    37   ar
    22    30    31   ar
    23     4     5    1
    24     5     6    1
    25     8    10   am
    26    10    13    1
    27    13    14    1
    28    14    15   ar
    29    15    16   ar
    30    16    17   ar
    31    17    18   ar
    32    18    19   ar
    33    13    20    1
    34    20    21   ar
    35    21    22   ar
    36    22    23   ar
    37    23    24   ar
    38     6     1    1
    39    19    14   ar
    40    24    20   ar
    41    31    27   ar
    42    37    32   ar
    43     9    11    1
    44    10    12    1
    45    24    25    1
@<TRIPOS>MOLECULE
*****
 41 45 0 0 0
SMALL
GASTEIGER

@<TRIPOS>ATOM
      1 C          59.5082   92.3636    4.0534 C.3     1  UNL1        0.0758
      2 C          60.6408   91.5470    4.6013 C.3     1  UNL1        0.0370
      3 C          60.3597   90.4002    5.5264 C.3     1  UNL1        0.0741
      4 N          58.9459   90.0701    5.9036 N.3     1  UNL1       -0.2688
      5 C          57.8133   90.8867    5.3557 C.3     1  UNL1        0.0741
      6 C          58.0944   92.0335    4.4306 C.3     1  UNL1        0.0370
      7 O          59.7367   91.8875    1.1003 O.2     1  UNL1       -0.2528
      8 C          59.9035   93.2724    1.6517 C.2     1  UNL1        0.3012
      9 N          59.7893   93.5105    3.1283 N.am    1  UNL1       -0.2905
     10 N          60.1846   94.4192    0.7266 N.am    1  UNL1       -0.2805
     11 H          59.8988   94.4195    3.4902 H       1  UNL1        0.1509
     12 H          60.2941   95.3282    1.0886 H       1  UNL1        0.1516
     13 C          60.2989   94.1811   -0.7499 C.3     1  UNL1        0.1526
     14 C          61.6318   94.2988   -1.4276 C.ar    1  UNL1        0.0027
     15 C          61.7951   93.8397   -2.8463 C.ar    1  UNL1       -0.0023
     16 C          63.1281   93.9574   -3.5240 C.ar    1  UNL1       -0.0003
     17 C          64.2978   94.5342   -2.7831 C.ar    1  UNL1       -0.0000
     18 C          64.1346   94.9933   -1.3645 C.ar    1  UNL1       -0.0003
     19 C          62.8016   94.8757   -0.6867 C.ar    1  UNL1       -0.0023
     20 C          59.0802   93.8253   -1.5488 C.ar    1  UNL1        0.1395
     21 N          58.1708   94.7921   -2.2475 N.ar    1  UNL1       -0.2275
     22 C          57.0854   94.0045   -2.9198 C.ar    1  UNL1        0.1187
     23 C          57.3241   92.5510   -2.6364 C.ar    1  UNL1        0.0943
     24 N          58.5569   92.4403   -1.7891 N.ar    1  UNL1       -0.3380
     25 H          58.9530   91.6051   -1.4502 H       1  UNL1        0.1672
     26 C          58.6649   88.9232    6.8287 C.3     1  UNL1        0.1007
     27 C          59.6581   88.5557    7.8909 C.ar    1  UNL1        0.0129
     28 C          60.2759   89.4955    8.8834 C.ar    1  UNL1        0.0176
     29 C          61.2076   88.7045    9.7530 C.ar    1  UNL1        0.0799
     30 N          61.1655   87.2757    9.2980 N.ar    1  UNL1       -0.3038
     31 C          60.2079   87.1838    8.1472 C.ar    1  UNL1        0.0772
     32 C          61.9444   86.1386    9.8900 C.ar    1  UNL1        0.0640
     33 C          61.8622   85.8589   11.3613 C.ar    1  UNL1        0.0175
     34 C          62.6410   84.7217   11.9532 C.ar    1  UNL1        0.0053
     35 C          63.5020   83.8644   11.0738 C.ar    1  UNL1        0.0715
     36 C          63.5842   84.1441    9.6024 C.ar    1  UNL1        0.0053
     37 C          62.8054   85.2812    9.0105 C.ar    1  UNL1        0.0175
     38 C          64.2808   82.7273   11.6657 C.3     1  UNL1        0.4186
     39 F          65.0597   81.5901   12.2576 F       1  UNL1       -0.1659
     40 F          64.5915   83.5666   12.8694 F       1  UNL1       -0.1659
     41 F          63.9702   81.8878   10.4620 F       1  UNL1       -0.1659
@<TRIPOS>BOND
     1     7     8    2
     2     8     9   am
     3     9     1    1
     4     1     2    1
     5     2     3    1
     6     3     4    1
     7     4    26    1
     8    26    27    1
     9    27    28   ar
    10    28    29   ar
    11    29    30   ar
    12    30    32    1
    13    32    33   ar
    14    33    34   ar
    15    34    35   ar
    16    35    38    1
    17    38    39    1
    18    38    40    1
    19    38    41    1
    20    35    36   ar
    21    36    37   ar
    22    30    31   ar
    23     4     5    1
    24     5     6    1
    25     8    10   am
    26    10    13    1
    27    13    14    1
    28    14    15   ar
    29    15    16   ar
    30    16    17   ar
    31    17    18   ar
    32    18    19   ar
    33    13    20    1
    34    20    21   ar
    35    21    22   ar
    36    22    23   ar
    37    23    24   ar
    38     6     1    1
    39    19    14   ar
    40    24    20   ar
    41    31    27   ar
    42    37    32   ar
    43     9    11    1
    44    10    12    1
    45    24    25    1
@<TRIPOS>MOLECULE
*****
 41 45 0 0 0
SMALL
GASTEIGER

@<TRIPOS>ATOM
      1 C          61.5794   86.8332    8.9495 C.3     1  UNL1        0.0758
      2 C          61.4524   88.2612    9.3905 C.3     1  UNL1        0.0370
      3 C          60.3946   89.1399    8.7916 C.3     1  UNL1        0.0741
      4 N          59.4637   88.5906    7.7516 N.3     1  UNL1       -0.2688
      5 C          59.5906   87.1626    7.3105 C.3     1  UNL1        0.0741
      6 C          60.6485   86.2839    7.9095 C.3     1  UNL1        0.0370
      7 O          61.1601   85.6144   11.6585 O.2     1  UNL1       -0.2528
      8 C          62.4276   85.3450   10.9029 C.2     1  UNL1        0.3012
      9 N          62.6373   85.9544    9.5484 N.am    1  UNL1       -0.2905
     10 N          63.4855   84.4662   11.5019 N.am    1  UNL1       -0.2805
     11 H          63.4692   85.7776    9.0525 H       1  UNL1        0.1509
     12 H          64.3174   84.2894   11.0060 H       1  UNL1        0.1516
     13 C          63.2759   83.8569   12.8564 C.3     1  UNL1        0.1526
     14 C          63.3241   84.7196   14.0825 C.ar    1  UNL1        0.0027
     15 C          62.4119   84.4322   15.2381 C.ar    1  UNL1       -0.0023
     16 C          62.4601   85.2949   16.4642 C.ar    1  UNL1       -0.0003
     17 C          63.4204   86.4451   16.5347 C.ar    1  UNL1       -0.0000
     18 C          64.3325   86.7325   15.3792 C.ar    1  UNL1       -0.0003
     19 C          64.2844   85.8697   14.1530 C.ar    1  UNL1       -0.0023
     20 C          63.0180   82.3848   12.9848 C.ar    1  UNL1        0.1395
     21 N          62.8493   81.4171   11.8512 N.ar    1  UNL1       -0.2275
     22 C          62.6107   80.0561   12.4351 C.ar    1  UNL1        0.1187
     23 C          62.6319   80.1828   13.9296 C.ar    1  UNL1        0.0943
     24 N          62.8837   81.6219   14.2693 N.ar    1  UNL1       -0.3380
     25 H          62.9492   81.9996   15.1761 H       1  UNL1        0.1672
     26 C          58.4058   89.4694    7.1526 C.3     1  UNL1        0.1007
     27 C          58.7420   90.3690    6.0004 C.ar    1  UNL1        0.0129
     28 C          57.7655   91.1782    5.1995 C.ar    1  UNL1        0.0176
     29 C          58.5337   91.9268    4.1509 C.ar    1  UNL1        0.0799
     30 N          59.9852   91.5802    4.3038 N.ar    1  UNL1       -0.3038
     31 C          60.1139   90.6175    5.4469 C.ar    1  UNL1        0.0772
     32 C          61.1103   92.1044    3.4616 C.ar    1  UNL1        0.0640
     33 C          60.9018   93.3150    2.6009 C.ar    1  UNL1        0.0175
     34 C          62.0269   93.8391    1.7586 C.ar    1  UNL1        0.0053
     35 C          63.3604   93.1527    1.7771 C.ar    1  UNL1        0.0715
     36 C          63.5689   91.9421    2.6379 C.ar    1  UNL1        0.0053
     37 C          62.4439   91.4179    3.4801 C.ar    1  UNL1        0.0175
     38 C          64.4855   93.6769    0.9349 C.3     1  UNL1        0.4186
     39 F          65.6107   94.2011    0.0927 F       1  UNL1       -0.1659
     40 F          63.8286   93.1163   -0.2915 F       1  UNL1       -0.1659
     41 F          65.1425   94.2375    2.1614 F       1  UNL1       -0.1659
@<TRIPOS>BOND
     1     7     8    2
     2     8     9   am
     3     9     1    1
     4     1     2    1
     5     2     3    1
     6     3     4    1
     7     4    26    1
     8    26    27    1
     9    27    28   ar
    10    28    29   ar
    11    29    30   ar
    12    30    32    1
    13    32    33   ar
    14    33    34   ar
    15    34    35   ar
    16    35    38    1
    17    38    39    1
    18    38    40    1
    19    38    41    1
    20    35    36   ar
    21    36    37   ar
    22    30    31   ar
    23     4     5    1
    24     5     6    1
    25     8    10   am
    26    10    13    1
    27    13    14    1
    28    14    15   ar
    29    15    16   ar
    30    16    17   ar
    31    17    18   ar
    32    18    19   ar
    33    13    20    1
    34    20    21   ar
    35    21    22   ar
    36    22    23   ar
    37    23    24   ar
    38     6     1    1
    39    19    14   ar
    40    24    20   ar
    41    31    27   ar
    42    37    32   ar
    43     9    11    1
    44    10    12    1
    45    24    25    1
@<TRIPOS>MOLECULE
*****
 41 45 0 0 0
SMALL
GASTEIGER

@<TRIPOS>ATOM
      1 C          59.5918   92.4381    4.0868 C.3     1  UNL1        0.0758
      2 C          58.1833   92.1524    4.5163 C.3     1  UNL1        0.0370
      3 C          57.8967   90.9939    5.4249 C.3     1  UNL1        0.0741
      4 N          59.0186   90.1210    5.9041 N.3     1  UNL1       -0.2688
      5 C          60.4271   90.4068    5.4747 C.3     1  UNL1        0.0741
      6 C          60.7137   91.5653    4.5660 C.3     1  UNL1        0.0370
      7 O          59.5461   92.0579    1.1114 O.2     1  UNL1       -0.2528
      8 C          59.8557   93.4065    1.6905 C.2     1  UNL1        0.3012
      9 N          59.8785   93.5966    3.1782 N.am    1  UNL1       -0.2905
     10 N          60.1424   94.5651    0.7818 N.am    1  UNL1       -0.2805
     11 H          60.0817   94.4818    3.5582 H       1  UNL1        0.1509
     12 H          60.3455   95.4502    1.1619 H       1  UNL1        0.1516
     13 C          60.1195   94.3750   -0.7059 C.3     1  UNL1        0.1526
     14 C          58.8385   94.0104   -1.3958 C.ar    1  UNL1        0.0027
     15 C          57.5668   94.7228   -1.0416 C.ar    1  UNL1       -0.0023
     16 C          56.2857   94.3581   -1.7314 C.ar    1  UNL1       -0.0003
     17 C          56.2763   93.2811   -2.7755 C.ar    1  UNL1       -0.0000
     18 C          57.5479   92.5688   -3.1296 C.ar    1  UNL1       -0.0003
     19 C          58.8290   92.9334   -2.4398 C.ar    1  UNL1       -0.0023
     20 C          61.3777   94.5495   -1.5037 C.ar    1  UNL1        0.1395
     21 N          62.7207   93.9706   -1.1702 N.ar    1  UNL1       -0.2275
     22 C          63.6868   94.3969   -2.2355 C.ar    1  UNL1        0.1187
     23 C          62.9409   95.2392   -3.2275 C.ar    1  UNL1        0.0943
     24 N          61.5138   95.3335   -2.7753 N.ar    1  UNL1       -0.3380
     25 H          60.7930   95.8239   -3.2327 H       1  UNL1        0.1672
     26 C          58.7319   88.9625    6.8128 C.3     1  UNL1        0.1007
     27 C          59.7438   88.5454    7.8384 C.ar    1  UNL1        0.0129
     28 C          60.2457   87.1502    8.0653 C.ar    1  UNL1        0.0176
     29 C          61.2436   87.1928    9.1844 C.ar    1  UNL1        0.0799
     30 N          61.3585   88.6144    9.6491 N.ar    1  UNL1       -0.3038
     31 C          60.4316   89.4504    8.8173 C.ar    1  UNL1        0.0772
     32 C          62.2447   89.1126   10.7521 C.ar    1  UNL1        0.0640
     33 C          62.6843   90.5465   10.7712 C.ar    1  UNL1        0.0175
     34 C          63.5705   91.0447   11.8742 C.ar    1  UNL1        0.0053
     35 C          64.0171   90.1089   12.9579 C.ar    1  UNL1        0.0715
     36 C          63.5776   88.6748   12.9388 C.ar    1  UNL1        0.0053
     37 C          62.6914   88.1767   11.8359 C.ar    1  UNL1        0.0175
     38 C          64.9033   90.6070   14.0608 C.3     1  UNL1        0.4186
     39 F          65.7896   91.1051   15.1638 F       1  UNL1       -0.1659
     40 F          64.8217   91.9955   13.4993 F       1  UNL1       -0.1659
     41 F          64.9850   89.2184   14.6224 F       1  UNL1       -0.1659
@<TRIPOS>BOND
     1     7     8    2
     2     8     9   am
     3     9     1    1
     4     1     2    1
     5     2     3    1
     6     3     4    1
     7     4    26    1
     8    26    27    1
     9    27    28   ar
    10    28    29   ar
    11    29    30   ar
    12    30    32    1
    13    32    33   ar
    14    33    34   ar
    15    34    35   ar
    16    35    38    1
    17    38    39    1
    18    38    40    1
    19    38    41    1
    20    35    36   ar
    21    36    37   ar
    22    30    31   ar
    23     4     5    1
    24     5     6    1
    25     8    10   am
    26    10    13    1
    27    13    14    1
    28    14    15   ar
    29    15    16   ar
    30    16    17   ar
    31    17    18   ar
    32    18    19   ar
    33    13    20    1
    34    20    21   ar
    35    21    22   ar
    36    22    23   ar
    37    23    24   ar
    38     6     1    1
    39    19    14   ar
    40    24    20   ar
    41    31    27   ar
    42    37    32   ar
    43     9    11    1
    44    10    12    1
    45    24    25    1
@<TRIPOS>MOLECULE
*****
 41 45 0 0 0
SMALL
GASTEIGER

@<TRIPOS>ATOM
      1 C          59.4436   92.3439    4.2766 C.3     1  UNL1        0.0758
      2 C          58.0606   91.9734    4.7237 C.3     1  UNL1        0.0370
      3 C          57.8497   90.7635    5.5850 C.3     1  UNL1        0.0741
      4 N          59.0219   89.9242    5.9991 N.3     1  UNL1       -0.2688
      5 C          60.4049   90.2947    5.5520 C.3     1  UNL1        0.0741
      6 C          60.6158   91.5045    4.6908 C.3     1  UNL1        0.0370
      7 O          61.0889   92.1372    1.7766 O.2     1  UNL1       -0.2528
      8 C          60.4771   93.4504    2.1654 C.2     1  UNL1        0.3012
      9 N          59.6545   93.5538    3.4153 N.am    1  UNL1       -0.2905
     10 N          60.6880   94.6603    1.3041 N.am    1  UNL1       -0.2805
     11 H          59.2530   94.4157    3.6705 H       1  UNL1        0.1509
     12 H          60.2865   95.5222    1.5592 H       1  UNL1        0.1516
     13 C          61.5107   94.5569    0.0541 C.3     1  UNL1        0.1526
     14 C          60.8364   94.4924   -1.2842 C.ar    1  UNL1        0.0027
     15 C          59.4012   94.9063   -1.4217 C.ar    1  UNL1       -0.0023
     16 C          58.7269   94.8418   -2.7601 C.ar    1  UNL1       -0.0003
     17 C          59.4879   94.3634   -3.9610 C.ar    1  UNL1       -0.0000
     18 C          60.9231   93.9495   -3.8235 C.ar    1  UNL1       -0.0003
     19 C          61.5974   94.0140   -2.4851 C.ar    1  UNL1       -0.0023
     20 C          63.0076   94.5181    0.1424 C.ar    1  UNL1        0.1395
     21 N          63.9463   95.5931   -0.3193 N.ar    1  UNL1       -0.2275
     22 C          65.3474   95.1368   -0.0391 C.ar    1  UNL1        0.1187
     23 C          65.2748   93.7798    0.5959 C.ar    1  UNL1        0.0943
     24 N          63.8286   93.3974    0.7081 N.ar    1  UNL1       -0.3380
     25 H          63.4797   92.5582    1.0865 H       1  UNL1        0.1672
     26 C          58.8110   88.7143    6.8604 C.3     1  UNL1        0.1007
     27 C          59.8239   88.3521    7.9058 C.ar    1  UNL1        0.0129
     28 C          60.3531   86.9758    8.1811 C.ar    1  UNL1        0.0176
     29 C          61.3417   87.0756    9.3049 C.ar    1  UNL1        0.0799
     30 N          61.4234   88.5136    9.7241 N.ar    1  UNL1       -0.3038
     31 C          60.4853   89.3024    8.8594 C.ar    1  UNL1        0.0772
     32 C          62.2908   89.0657   10.8162 C.ar    1  UNL1        0.0640
     33 C          62.7728   88.1683   11.9172 C.ar    1  UNL1        0.0175
     34 C          63.6402   88.7204   13.0093 C.ar    1  UNL1        0.0053
     35 C          64.0256   90.1699   13.0004 C.ar    1  UNL1        0.0715
     36 C          63.5436   91.0674   11.8994 C.ar    1  UNL1        0.0053
     37 C          62.6762   90.5153   10.8073 C.ar    1  UNL1        0.0175
     38 C          64.8930   90.7220   14.0925 C.3     1  UNL1        0.4186
     39 F          65.7605   91.2742   15.1846 F       1  UNL1       -0.1659
     40 F          64.6754   89.4743   14.8961 F       1  UNL1       -0.1659
     41 F          65.1107   91.9699   13.2889 F       1  UNL1       -0.1659
@<TRIPOS>BOND
     1     7     8    2
     2     8     9   am
     3     9     1    1
     4     1     2    1
     5     2     3    1
     6     3     4    1
     7     4    26    1
     8    26    27    1
     9    27    28   ar
    10    28    29   ar
    11    29    30   ar
    12    30    32    1
    13    32    33   ar
    14    33    34   ar
    15    34    35   ar
    16    35    38    1
    17    38    39    1
    18    38    40    1
    19    38    41    1
    20    35    36   ar
    21    36    37   ar
    22    30    31   ar
    23     4     5    1
    24     5     6    1
    25     8    10   am
    26    10    13    1
    27    13    14    1
    28    14    15   ar
    29    15    16   ar
    30    16    17   ar
    31    17    18   ar
    32    18    19   ar
    33    13    20    1
    34    20    21   ar
    35    21    22   ar
    36    22    23   ar
    37    23    24   ar
    38     6     1    1
    39    19    14   ar
    40    24    20   ar
    41    31    27   ar
    42    37    32   ar
    43     9    11    1
    44    10    12    1
    45    24    25    1
@<TRIPOS>MOLECULE
*****
 41 45 0 0 0
SMALL
GASTEIGER

@<TRIPOS>ATOM
      1 C          59.5442   92.3901    4.2445 C.3     1  UNL1        0.0758
      2 C          58.1500   92.0714    4.6968 C.3     1  UNL1        0.0370
      3 C          57.8957   90.8638    5.5494 C.3     1  UNL1        0.0741
      4 N          59.0357   89.9749    5.9498 N.3     1  UNL1       -0.2688
      5 C          60.4299   90.2936    5.4976 C.3     1  UNL1        0.0741
      6 C          60.6841   91.5012    4.6449 C.3     1  UNL1        0.0370
      7 O          59.4496   92.1622    1.2547 O.2     1  UNL1       -0.2528
      8 C          59.7512   93.4837    1.8969 C.2     1  UNL1        0.3012
      9 N          59.7985   93.5977    3.3918 N.am    1  UNL1       -0.2905
     10 N          60.0055   94.6914    1.0442 N.am    1  UNL1       -0.2805
     11 H          59.9964   94.4651    3.8133 H       1  UNL1        0.1509
     12 H          60.2034   95.5588    1.4657 H       1  UNL1        0.1516
     13 C          59.9582   94.5774   -0.4507 C.3     1  UNL1        0.1526
     14 C          61.2115   94.2831   -1.2204 C.ar    1  UNL1        0.0027
     15 C          62.5519   94.5276   -0.5929 C.ar    1  UNL1       -0.0023
     16 C          63.8052   94.2333   -1.3627 C.ar    1  UNL1       -0.0003
     17 C          63.7182   93.6945   -2.7598 C.ar    1  UNL1       -0.0000
     18 C          62.3779   93.4500   -3.3873 C.ar    1  UNL1       -0.0003
     19 C          61.1245   93.7443   -2.6176 C.ar    1  UNL1       -0.0023
     20 C          58.6575   94.7577   -1.1758 C.ar    1  UNL1        0.1395
     21 N          57.4073   93.9586   -0.9559 N.ar    1  UNL1       -0.2275
     22 C          56.3558   94.4758   -1.8924 C.ar    1  UNL1        0.1187
     23 C          56.9563   95.5946   -2.6911 C.ar    1  UNL1        0.0943
     24 N          58.3788   95.7688   -2.2482 N.ar    1  UNL1       -0.3380
     25 H          59.0173   96.4305   -2.5997 H       1  UNL1        0.1672
     26 C          58.7814   88.7673    6.8025 C.3     1  UNL1        0.1007
     27 C          59.7643   88.3808    7.8676 C.ar    1  UNL1        0.0129
     28 C          60.2342   86.9888    8.1704 C.ar    1  UNL1        0.0176
     29 C          61.2102   87.0660    9.3068 C.ar    1  UNL1        0.0799
     30 N          61.3436   88.5057    9.7063 N.ar    1  UNL1       -0.3038
     31 C          60.4499   89.3182    8.8169 C.ar    1  UNL1        0.0772
     32 C          62.2171   89.0392   10.8028 C.ar    1  UNL1        0.0640
     33 C          62.5693   90.4967   10.8391 C.ar    1  UNL1        0.0175
     34 C          63.4429   91.0302   11.9356 C.ar    1  UNL1        0.0053
     35 C          63.9643   90.1061   12.9958 C.ar    1  UNL1        0.0715
     36 C          63.6121   88.6485   12.9595 C.ar    1  UNL1        0.0053
     37 C          62.7385   88.1150   11.8631 C.ar    1  UNL1        0.0175
     38 C          64.8379   90.6395   14.0922 C.3     1  UNL1        0.4186
     39 F          65.7114   91.1729   15.1888 F       1  UNL1       -0.1659
     40 F          65.3033   91.7403   13.1858 F       1  UNL1       -0.1659
     41 F          64.3724   89.5387   14.9987 F       1  UNL1       -0.1659
@<TRIPOS>BOND
     1     7     8    2
     2     8     9   am
     3     9     1    1
     4     1     2    1
     5     2     3    1
     6     3     4    1
     7     4    26    1
     8    26    27    1
     9    27    28   ar
    10    28    29   ar
    11    29    30   ar
    12    30    32    1
    13    32    33   ar
    14    33    34   ar
    15    34    35   ar
    16    35    38    1
    17    38    39    1
    18    38    40    1
    19    38    41    1
    20    35    36   ar
    21    36    37   ar
    22    30    31   ar
    23     4     5    1
    24     5     6    1
    25     8    10   am
    26    10    13    1
    27    13    14    1
    28    14    15   ar
    29    15    16   ar
    30    16    17   ar
    31    17    18   ar
    32    18    19   ar
    33    13    20    1
    34    20    21   ar
    35    21    22   ar
    36    22    23   ar
    37    23    24   ar
    38     6     1    1
    39    19    14   ar
    40    24    20   ar
    41    31    27   ar
    42    37    32   ar
    43     9    11    1
    44    10    12    1
    45    24    25    1
@<TRIPOS>MOLECULE
*****
 41 45 0 0 0
SMALL
GASTEIGER

@<TRIPOS>ATOM
      1 C          63.4886   86.2406   16.0776 C.3     1  UNL1        0.0758
      2 C          64.2511   86.8343   14.9304 C.3     1  UNL1        0.0370
      3 C          64.3989   88.3227   14.8183 C.3     1  UNL1        0.0741
      4 N          63.7843   89.2175   15.8536 N.3     1  UNL1       -0.2688
      5 C          63.0219   88.6238   17.0008 C.3     1  UNL1        0.0741
      6 C          62.8741   87.1354   17.1128 C.3     1  UNL1        0.0370
      7 O          62.4410   84.6581   13.7542 O.2     1  UNL1       -0.2528
      8 C          62.8169   83.9608   15.0280 C.2     1  UNL1        0.3012
      9 N          63.3407   84.7521   16.1897 N.am    1  UNL1       -0.2905
     10 N          62.6690   82.4723   15.1401 N.am    1  UNL1       -0.2805
     11 H          63.5875   84.2944   17.0257 H       1  UNL1        0.1509
     12 H          62.9158   82.0147   15.9761 H       1  UNL1        0.1516
     13 C          62.1452   81.6811   13.9784 C.3     1  UNL1        0.1526
     14 C          62.8250   81.7683   12.6442 C.ar    1  UNL1        0.0027
     15 C          63.8611   82.8247   12.3979 C.ar    1  UNL1       -0.0023
     16 C          64.5409   82.9119   11.0637 C.ar    1  UNL1       -0.0003
     17 C          64.1846   81.9428    9.9756 C.ar    1  UNL1       -0.0000
     18 C          63.1485   80.8864   10.2218 C.ar    1  UNL1       -0.0003
     19 C          62.4687   80.7992   11.5561 C.ar    1  UNL1       -0.0023
     20 C          60.9417   80.8026   14.1510 C.ar    1  UNL1        0.1395
     21 N          59.5193   81.2668   14.2571 N.ar    1  UNL1       -0.2275
     22 C          58.6477   80.0569   14.4195 C.ar    1  UNL1        0.1187
     23 C          59.5314   78.8449   14.4137 C.ar    1  UNL1        0.0943
     24 N          60.9492   79.3058   14.2477 N.ar    1  UNL1       -0.3380
     25 H          61.7449   78.7274   14.2091 H       1  UNL1        0.1672
     26 C          63.9322   90.7060   15.7415 C.3     1  UNL1        0.1007
     27 C          65.0220   91.2896   14.8920 C.ar    1  UNL1        0.0129
     28 C          66.4964   91.1277   15.1155 C.ar    1  UNL1        0.0176
     29 C          67.2144   91.8756   14.0314 C.ar    1  UNL1        0.0799
     30 N          66.1837   92.4997   13.1379 N.ar    1  UNL1       -0.3038
     31 C          64.8288   92.1375   13.6697 C.ar    1  UNL1        0.0772
     32 C          66.4596   93.3386   11.9254 C.ar    1  UNL1        0.0640
     33 C          67.0418   92.7093   10.6946 C.ar    1  UNL1        0.0175
     34 C          67.3177   93.5482    9.4822 C.ar    1  UNL1        0.0053
     35 C          67.0114   95.0164    9.5005 C.ar    1  UNL1        0.0715
     36 C          66.4292   95.6458   10.7313 C.ar    1  UNL1        0.0053
     37 C          66.1533   94.8069   11.9438 C.ar    1  UNL1        0.0175
     38 C          67.2873   95.8553    8.2881 C.3     1  UNL1        0.4186
     39 F          67.5633   96.6943    7.0756 F       1  UNL1       -0.1659
     40 F          66.5649   94.8570    7.4329 F       1  UNL1       -0.1659
     41 F          68.0098   96.8538    9.1432 F       1  UNL1       -0.1659
@<TRIPOS>BOND
     1     7     8    2
     2     8     9   am
     3     9     1    1
     4     1     2    1
     5     2     3    1
     6     3     4    1
     7     4    26    1
     8    26    27    1
     9    27    28   ar
    10    28    29   ar
    11    29    30   ar
    12    30    32    1
    13    32    33   ar
    14    33    34   ar
    15    34    35   ar
    16    35    38    1
    17    38    39    1
    18    38    40    1
    19    38    41    1
    20    35    36   ar
    21    36    37   ar
    22    30    31   ar
    23     4     5    1
    24     5     6    1
    25     8    10   am
    26    10    13    1
    27    13    14    1
    28    14    15   ar
    29    15    16   ar
    30    16    17   ar
    31    17    18   ar
    32    18    19   ar
    33    13    20    1
    34    20    21   ar
    35    21    22   ar
    36    22    23   ar
    37    23    24   ar
    38     6     1    1
    39    19    14   ar
    40    24    20   ar
    41    31    27   ar
    42    37    32   ar
    43     9    11    1
    44    10    12    1
    45    24    25    1
@<TRIPOS>MOLECULE
*****
 41 45 0 0 0
SMALL
GASTEIGER

@<TRIPOS>ATOM
      1 C          60.7584   92.3034    3.3168 C.3     1  UNL1        0.0758
      2 C          59.3078   92.5720    3.5876 C.3     1  UNL1        0.0370
      3 C          58.5862   91.7941    4.6479 C.3     1  UNL1        0.0741
      4 N          59.3153   90.7476    5.4373 N.3     1  UNL1       -0.2688
      5 C          60.7660   90.4790    5.1664 C.3     1  UNL1        0.0741
      6 C          61.4875   91.2569    4.1062 C.3     1  UNL1        0.0370
      7 O          59.7657   92.2587    0.4861 O.2     1  UNL1       -0.2528
      8 C          60.9837   93.0589    0.8412 C.2     1  UNL1        0.3012
      9 N          61.4800   93.0813    2.2564 N.am    1  UNL1       -0.2905
     10 N          61.7053   93.8368   -0.2192 N.am    1  UNL1       -0.2805
     11 H          62.2795   93.6065    2.4895 H       1  UNL1        0.1509
     12 H          62.5047   94.3621    0.0139 H       1  UNL1        0.1516
     13 C          61.2089   93.8145   -1.6344 C.3     1  UNL1        0.1526
     14 C          59.7497   94.0113   -1.9206 C.ar    1  UNL1        0.0027
     15 C          59.0625   95.2703   -1.4816 C.ar    1  UNL1       -0.0023
     16 C          57.6033   95.4672   -1.7677 C.ar    1  UNL1       -0.0003
     17 C          56.8312   94.4051   -2.4929 C.ar    1  UNL1       -0.0000
     18 C          57.5184   93.1461   -2.9319 C.ar    1  UNL1       -0.0003
     19 C          58.9777   92.9492   -2.6458 C.ar    1  UNL1       -0.0023
     20 C          62.1717   93.5952   -2.7636 C.ar    1  UNL1        0.1395
     21 N          63.4697   92.8478   -2.6829 N.ar    1  UNL1       -0.2275
     22 C          64.1058   92.8755   -4.0411 C.ar    1  UNL1        0.1187
     23 C          63.2009   93.6401   -4.9612 C.ar    1  UNL1        0.0943
     24 N          62.0056   94.0849   -4.1716 N.ar    1  UNL1       -0.3380
     25 H          61.2455   94.6067   -4.5169 H       1  UNL1        0.1672
     26 C          58.5937   89.9697    6.4976 C.3     1  UNL1        0.1007
     27 C          59.3231   88.9240    7.2878 C.ar    1  UNL1        0.0129
     28 C          59.3908   87.4612    6.9630 C.ar    1  UNL1        0.0176
     29 C          60.2224   86.7906    8.0161 C.ar    1  UNL1        0.0799
     30 N          60.6685   87.8390    8.9917 N.ar    1  UNL1       -0.3038
     31 C          60.1127   89.1575    8.5416 C.ar    1  UNL1        0.0772
     32 C          61.5208   87.6092   10.2045 C.ar    1  UNL1        0.0640
     33 C          62.1913   88.7682   10.8805 C.ar    1  UNL1        0.0175
     34 C          63.0436   88.5384   12.0932 C.ar    1  UNL1        0.0053
     35 C          63.2254   87.1497   12.6299 C.ar    1  UNL1        0.0715
     36 C          62.5549   85.9906   11.9540 C.ar    1  UNL1        0.0053
     37 C          61.7026   86.2204   10.7412 C.ar    1  UNL1        0.0175
     38 C          64.0777   86.9199   13.8427 C.3     1  UNL1        0.4186
     39 F          64.9300   86.6900   15.0555 F       1  UNL1       -0.1659
     40 F          64.3527   88.3919   13.9284 F       1  UNL1       -0.1659
     41 F          63.8027   85.4477   13.7571 F       1  UNL1       -0.1659
@<TRIPOS>BOND
     1     7     8    2
     2     8     9   am
     3     9     1    1
     4     1     2    1
     5     2     3    1
     6     3     4    1
     7     4    26    1
     8    26    27    1
     9    27    28   ar
    10    28    29   ar
    11    29    30   ar
    12    30    32    1
    13    32    33   ar
    14    33    34   ar
    15    34    35   ar
    16    35    38    1
    17    38    39    1
    18    38    40    1
    19    38    41    1
    20    35    36   ar
    21    36    37   ar
    22    30    31   ar
    23     4     5    1
    24     5     6    1
    25     8    10   am
    26    10    13    1
    27    13    14    1
    28    14    15   ar
    29    15    16   ar
    30    16    17   ar
    31    17    18   ar
    32    18    19   ar
    33    13    20    1
    34    20    21   ar
    35    21    22   ar
    36    22    23   ar
    37    23    24   ar
    38     6     1    1
    39    19    14   ar
    40    24    20   ar
    41    31    27   ar
    42    37    32   ar
    43     9    11    1
    44    10    12    1
    45    24    25    1
