@<TRIPOS>MOLECULE
*****
 29 31 0 0 0
SMALL
GASTEIGER

@<TRIPOS>ATOM
      1 C          65.4480   92.1200   14.6832 C.ar    1  UNL1        0.0516
      2 C          64.8177   90.9468   15.3733 C.ar    1  UNL1        0.0147
      3 C          63.9410   90.0052   14.6021 C.ar    1  UNL1        0.0013
      4 C          63.6945   90.2369   13.1408 C.ar    1  UNL1       -0.0001
      5 C          62.8177   89.2953   12.3696 C.ar    1  UNL1       -0.0017
      6 C          62.5712   89.5269   10.9082 C.ar    1  UNL1        0.0070
      7 C          63.2015   90.7002   10.2180 C.ar    1  UNL1       -0.0017
      8 C          64.0782   91.6418   10.9892 C.ar    1  UNL1       -0.0002
      9 C          64.3247   91.4101   12.4506 C.ar    1  UNL1        0.0012
     10 C          65.2015   92.3516   13.2218 C.ar    1  UNL1        0.0147
     11 C          70.1560   94.0648   15.7089 C.3     1  UNL1        0.1122
     12 N          68.6787   94.0340   15.9673 N.am    1  UNL1       -0.2869
     13 C          67.8020   93.0924   15.1961 C.2     1  UNL1        0.3045
     14 O          68.4025   92.1816   14.1665 O.2     1  UNL1       -0.2525
     15 N          66.3247   93.0616   15.4544 N.am    1  UNL1       -0.2683
     16 H          68.2846   94.6317   16.6430 H       1  UNL1        0.1510
     17 H          65.9306   93.6593   16.1301 H       1  UNL1        0.1564
     18 C          61.6944   88.5854   10.1370 C.3     1  UNL1        0.1410
     19 O          62.8850   88.1190    9.3529 O.3     1  UNL1       -0.3771
     20 H          63.6762   88.5925    9.6540 H       1  UNL1        0.2112
     21 C          60.5038   89.0518   10.9212 C.ar    1  UNL1        0.0825
     22 C          59.9068   90.4272   10.8830 C.ar    1  UNL1        0.1157
     23 N          58.7352   90.4502   11.8194 N.ar    1  UNL1       -0.2228
     24 C          58.6082   89.0888   12.4363 C.ar    1  UNL1        0.1749
     25 N          59.7013   88.2245   11.8811 N.ar    1  UNL1       -0.3361
     26 H          59.8635   87.2802   12.1071 H       1  UNL1        0.1673
     27 C          60.8177   87.6438    9.3658 C.3     1  UNL1        0.0340
     28 C          60.9392   86.1636    9.5761 C.3     1  UNL1        0.0031
     29 C          59.8194   88.1825    8.3843 C.3     1  UNL1        0.0031
@<TRIPOS>BOND
     1    11    12    1
     2    12    13   am
     3    13    14    2
     4    13    15   am
     5    15     1    1
     6     1     2   ar
     7     2     3   ar
     8     3     4   ar
     9     4     5   ar
    10     5     6   ar
    11     6    18    1
    12    18    19    1
    13    18    21    1
    14    21    22   ar
    15    22    23   ar
    16    23    24   ar
    17    24    25   ar
    18    18    27    1
    19    27    28    1
    20    27    29    1
    21     6     7   ar
    22     7     8   ar
    23     8     9   ar
    24     9    10   ar
    25    10     1   ar
    26     9     4   ar
    27    25    21   ar
    28    12    16    1
    29    15    17    1
    30    19    20    1
    31    25    26    1
@<TRIPOS>MOLECULE
*****
 29 31 0 0 0
SMALL
GASTEIGER

@<TRIPOS>ATOM
      1 C          63.8951   89.7270   13.0530 C.ar    1  UNL1        0.0516
      2 C          63.0972   89.1817   11.9059 C.ar    1  UNL1        0.0147
      3 C          62.7375   87.7260   11.8674 C.ar    1  UNL1        0.0013
      4 C          63.1758   86.8155   12.9760 C.ar    1  UNL1       -0.0001
      5 C          62.8162   85.3598   12.9374 C.ar    1  UNL1       -0.0017
      6 C          63.2545   84.4494   14.0460 C.ar    1  UNL1        0.0070
      7 C          64.0525   84.9947   15.1932 C.ar    1  UNL1       -0.0017
      8 C          64.4121   86.4504   15.2317 C.ar    1  UNL1       -0.0002
      9 C          63.9738   87.3608   14.1230 C.ar    1  UNL1        0.0012
     10 C          64.3334   88.8166   14.1616 C.ar    1  UNL1        0.0147
     11 C          67.0984   93.5327   14.5549 C.3     1  UNL1        0.1122
     12 N          65.8564   93.0856   13.8424 N.am    1  UNL1       -0.2869
     13 C          65.4967   91.6299   13.8039 C.2     1  UNL1        0.3045
     14 O          66.3792   90.6212   14.4778 O.2     1  UNL1       -0.2525
     15 N          64.2548   91.1827   13.0915 N.am    1  UNL1       -0.2683
     16 H          65.2773   93.7476   13.4002 H       1  UNL1        0.1510
     17 H          63.6756   91.8447   12.6493 H       1  UNL1        0.1564
     18 C          62.8949   82.9936   14.0075 C.3     1  UNL1        0.1410
     19 O          62.3602   83.0887   15.4057 O.3     1  UNL1       -0.3771
     20 H          62.4643   83.9967   15.7306 H       1  UNL1        0.2112
     21 C          63.4295   82.8986   12.6092 C.ar    1  UNL1        0.0825
     22 C          64.8445   83.1610   12.1866 C.ar    1  UNL1        0.1157
     23 N          64.9325   82.9490   10.7043 N.ar    1  UNL1       -0.2228
     24 C          63.5717   82.5555   10.2108 C.ar    1  UNL1        0.1749
     25 N          62.6428   82.5244   11.3881 N.ar    1  UNL1       -0.3361
     26 H          61.6850   82.2981   11.3637 H       1  UNL1        0.1673
     27 C          62.5352   81.5379   13.9689 C.3     1  UNL1        0.0340
     28 C          61.1021   81.1156   14.1020 C.3     1  UNL1        0.0031
     29 C          63.6088   80.5044   13.7974 C.3     1  UNL1        0.0031
@<TRIPOS>BOND
     1    11    12    1
     2    12    13   am
     3    13    14    2
     4    13    15   am
     5    15     1    1
     6     1     2   ar
     7     2     3   ar
     8     3     4   ar
     9     4     5   ar
    10     5     6   ar
    11     6    18    1
    12    18    19    1
    13    18    21    1
    14    21    22   ar
    15    22    23   ar
    16    23    24   ar
    17    24    25   ar
    18    18    27    1
    19    27    28    1
    20    27    29    1
    21     6     7   ar
    22     7     8   ar
    23     8     9   ar
    24     9    10   ar
    25    10     1   ar
    26     9     4   ar
    27    25    21   ar
    28    12    16    1
    29    15    17    1
    30    19    20    1
    31    25    26    1
@<TRIPOS>MOLECULE
*****
 29 31 0 0 0
SMALL
GASTEIGER

@<TRIPOS>ATOM
      1 C          65.4990   92.7027   12.6856 C.ar    1  UNL1        0.0516
      2 C          65.5343   92.9990   11.2156 C.ar    1  UNL1        0.0147
      3 C          64.5992   92.2862   10.2842 C.ar    1  UNL1        0.0013
      4 C          63.6287   91.2773   10.8228 C.ar    1  UNL1       -0.0001
      5 C          62.6935   90.5646    9.8914 C.ar    1  UNL1       -0.0017
      6 C          61.7231   89.5556   10.4300 C.ar    1  UNL1        0.0070
      7 C          61.6877   89.2594   11.9001 C.ar    1  UNL1       -0.0017
      8 C          62.6228   89.9721   12.8315 C.ar    1  UNL1       -0.0002
      9 C          63.5934   90.9811   12.2928 C.ar    1  UNL1        0.0012
     10 C          64.5285   91.6938   13.2242 C.ar    1  UNL1        0.0147
     11 C          69.2142   92.5553   16.3155 C.3     1  UNL1        0.1122
     12 N          68.2917   93.3418   15.4319 N.am    1  UNL1       -0.2869
     13 C          67.3566   92.6291   14.5005 C.2     1  UNL1        0.3045
     14 O          67.3439   91.1298   14.4527 O.2     1  UNL1       -0.2525
     15 N          66.4342   93.4155   13.6170 N.am    1  UNL1       -0.2683
     16 H          68.3001   94.3257   15.4634 H       1  UNL1        0.1510
     17 H          66.4425   94.3994   13.6485 H       1  UNL1        0.1564
     18 C          60.7879   88.8429    9.4986 C.3     1  UNL1        0.1410
     19 O          60.1961   90.1581    9.0864 O.3     1  UNL1       -0.3771
     20 H          60.6387   90.8762    9.5653 H       1  UNL1        0.2112
     21 C          61.3797   87.5277    9.9109 C.ar    1  UNL1        0.0825
     22 C          62.3706   86.7216    9.1246 C.ar    1  UNL1        0.1157
     23 N          62.6878   85.4834    9.9096 N.ar    1  UNL1       -0.2228
     24 C          61.8929   85.5242   11.1810 C.ar    1  UNL1        0.1749
     25 N          61.0844   86.7877   11.1818 N.ar    1  UNL1       -0.3361
     26 H          60.4682   87.0800   11.8917 H       1  UNL1        0.1673
     27 C          59.8527   88.1302    8.5672 C.3     1  UNL1        0.0340
     28 C          59.2841   86.7963    8.9510 C.3     1  UNL1        0.0031
     29 C          59.4862   88.7514    7.2520 C.3     1  UNL1        0.0031
@<TRIPOS>BOND
     1    11    12    1
     2    12    13   am
     3    13    14    2
     4    13    15   am
     5    15     1    1
     6     1     2   ar
     7     2     3   ar
     8     3     4   ar
     9     4     5   ar
    10     5     6   ar
    11     6    18    1
    12    18    19    1
    13    18    21    1
    14    21    22   ar
    15    22    23   ar
    16    23    24   ar
    17    24    25   ar
    18    18    27    1
    19    27    28    1
    20    27    29    1
    21     6     7   ar
    22     7     8   ar
    23     8     9   ar
    24     9    10   ar
    25    10     1   ar
    26     9     4   ar
    27    25    21   ar
    28    12    16    1
    29    15    17    1
    30    19    20    1
    31    25    26    1
@<TRIPOS>MOLECULE
*****
 29 31 0 0 0
SMALL
GASTEIGER

@<TRIPOS>ATOM
      1 C          64.6058   90.6644   14.2273 C.ar    1  UNL1        0.0516
      2 C          64.5004   89.1969   14.5190 C.ar    1  UNL1        0.0147
      3 C          63.7784   88.2924   13.5647 C.ar    1  UNL1        0.0013
      4 C          63.1616   88.8556   12.3188 C.ar    1  UNL1       -0.0001
      5 C          62.4395   87.9512   11.3645 C.ar    1  UNL1       -0.0017
      6 C          61.8227   88.5143   10.1186 C.ar    1  UNL1        0.0070
      7 C          61.9280   89.9820    9.8269 C.ar    1  UNL1       -0.0017
      8 C          62.6501   90.8864   10.7811 C.ar    1  UNL1       -0.0002
      9 C          63.2669   90.3232   12.0271 C.ar    1  UNL1        0.0012
     10 C          63.9890   91.2276   12.9814 C.ar    1  UNL1        0.0147
     11 C          68.8626   93.3355   15.5481 C.3     1  UNL1        0.1122
     12 N          67.4563   92.9044   15.8420 N.am    1  UNL1       -0.2869
     13 C          66.7342   92.0000   14.8877 C.2     1  UNL1        0.3045
     14 O          67.4184   91.5267   13.6396 O.2     1  UNL1       -0.2525
     15 N          65.3279   91.5688   15.1816 N.am    1  UNL1       -0.2683
     16 H          67.0072   93.2150   16.6612 H       1  UNL1        0.1510
     17 H          64.8788   91.8794   16.0008 H       1  UNL1        0.1564
     18 C          61.1006   87.6099    9.1643 C.3     1  UNL1        0.1410
     19 O          60.4220   88.7988    8.5511 O.3     1  UNL1       -0.3771
     20 H          60.7159   89.6065    9.0007 H       1  UNL1        0.2112
     21 C          61.7793   86.4211    9.7775 C.ar    1  UNL1        0.0825
     22 C          62.9808   85.7111    9.2279 C.ar    1  UNL1        0.1157
     23 N          63.3197   84.5847   10.1587 N.ar    1  UNL1       -0.2228
     24 C          62.3276   84.5986   11.2836 C.ar    1  UNL1        0.1749
     25 N          61.3755   85.7335   11.0480 N.ar    1  UNL1       -0.3361
     26 H          60.6186   85.9833   11.6258 H       1  UNL1        0.1673
     27 C          60.3785   86.7055    8.2101 C.3     1  UNL1        0.0340
     28 C          61.1429   85.6850    7.4199 C.3     1  UNL1        0.0031
     29 C          58.8920   86.8216    8.0460 C.3     1  UNL1        0.0031
@<TRIPOS>BOND
     1    11    12    1
     2    12    13   am
     3    13    14    2
     4    13    15   am
     5    15     1    1
     6     1     2   ar
     7     2     3   ar
     8     3     4   ar
     9     4     5   ar
    10     5     6   ar
    11     6    18    1
    12    18    19    1
    13    18    21    1
    14    21    22   ar
    15    22    23   ar
    16    23    24   ar
    17    24    25   ar
    18    18    27    1
    19    27    28    1
    20    27    29    1
    21     6     7   ar
    22     7     8   ar
    23     8     9   ar
    24     9    10   ar
    25    10     1   ar
    26     9     4   ar
    27    25    21   ar
    28    12    16    1
    29    15    17    1
    30    19    20    1
    31    25    26    1
@<TRIPOS>MOLECULE
*****
 29 31 0 0 0
SMALL
GASTEIGER

@<TRIPOS>ATOM
      1 C          61.0097   88.3024    9.2695 C.ar    1  UNL1        0.0516
      2 C          60.4062   88.2214   10.6404 C.ar    1  UNL1        0.0147
      3 C          60.7092   87.0486   11.5251 C.ar    1  UNL1        0.0013
      4 C          61.6157   85.9568   11.0390 C.ar    1  UNL1       -0.0001
      5 C          61.9187   84.7841   11.9238 C.ar    1  UNL1       -0.0017
      6 C          62.8252   83.6923   11.4377 C.ar    1  UNL1        0.0070
      7 C          63.4287   83.7733   10.0668 C.ar    1  UNL1       -0.0017
      8 C          63.1257   84.9461    9.1821 C.ar    1  UNL1       -0.0002
      9 C          62.2192   86.0379    9.6682 C.ar    1  UNL1        0.0012
     10 C          61.9162   87.2106    8.7835 C.ar    1  UNL1        0.0147
     11 C          58.2606   90.4370    5.4113 C.3     1  UNL1        0.1122
     12 N          59.3322   90.5425    6.4557 N.am    1  UNL1       -0.2869
     13 C          59.6352   89.3697    7.3404 C.2     1  UNL1        0.3045
     14 O          58.8667   88.0914    7.1808 O.2     1  UNL1       -0.2525
     15 N          60.7067   89.4752    8.3848 N.am    1  UNL1       -0.2683
     16 H          59.8366   91.3814    6.5604 H       1  UNL1        0.1510
     17 H          61.2111   90.3141    8.4896 H       1  UNL1        0.1564
     18 C          63.1282   82.5195   12.3225 C.3     1  UNL1        0.1410
     19 O          62.9084   81.5901   11.1658 O.3     1  UNL1       -0.3771
     20 H          62.6763   82.1048   10.3770 H       1  UNL1        0.2112
     21 C          63.3480   83.4489   13.4791 C.ar    1  UNL1        0.0825
     22 C          62.4712   83.5725   14.6898 C.ar    1  UNL1        0.1157
     23 N          63.0645   84.6179   15.5871 N.ar    1  UNL1       -0.2228
     24 C          64.3081   85.1403   14.9310 C.ar    1  UNL1        0.1749
     25 N          64.4833   84.4178   13.6282 N.ar    1  UNL1       -0.3361
     26 H          65.2150   84.5554   12.9840 H       1  UNL1        0.1673
     27 C          63.4312   81.3468   13.2072 C.3     1  UNL1        0.0340
     28 C          64.7888   81.2080   13.8299 C.3     1  UNL1        0.0031
     29 C          62.3766   80.3127   13.4693 C.3     1  UNL1        0.0031
@<TRIPOS>BOND
     1    11    12    1
     2    12    13   am
     3    13    14    2
     4    13    15   am
     5    15     1    1
     6     1     2   ar
     7     2     3   ar
     8     3     4   ar
     9     4     5   ar
    10     5     6   ar
    11     6    18    1
    12    18    19    1
    13    18    21    1
    14    21    22   ar
    15    22    23   ar
    16    23    24   ar
    17    24    25   ar
    18    18    27    1
    19    27    28    1
    20    27    29    1
    21     6     7   ar
    22     7     8   ar
    23     8     9   ar
    24     9    10   ar
    25    10     1   ar
    26     9     4   ar
    27    25    21   ar
    28    12    16    1
    29    15    17    1
    30    19    20    1
    31    25    26    1
@<TRIPOS>MOLECULE
*****
 29 31 0 0 0
SMALL
GASTEIGER

@<TRIPOS>ATOM
      1 C          61.6395   87.2405   10.0129 C.ar    1  UNL1        0.0516
      2 C          62.1089   86.4315   11.1856 C.ar    1  UNL1        0.0147
      3 C          62.8982   87.0859   12.2804 C.ar    1  UNL1        0.0013
      4 C          63.2181   88.5493   12.2026 C.ar    1  UNL1       -0.0001
      5 C          64.0075   89.2037   13.2975 C.ar    1  UNL1       -0.0017
      6 C          64.3274   90.6671   13.2197 C.ar    1  UNL1        0.0070
      7 C          63.8580   91.4761   12.0470 C.ar    1  UNL1       -0.0017
      8 C          63.0687   90.8217   10.9521 C.ar    1  UNL1       -0.0002
      9 C          62.7488   89.3583   11.0300 C.ar    1  UNL1        0.0012
     10 C          61.9594   88.7039    9.9351 C.ar    1  UNL1        0.0147
     11 C          61.4422   84.1728    5.8236 C.3     1  UNL1        0.1122
     12 N          60.7515   85.0523    6.8234 N.am    1  UNL1       -0.2869
     13 C          61.5408   85.7067    7.9182 C.2     1  UNL1        0.3045
     14 O          63.0208   85.4816    8.0133 O.2     1  UNL1       -0.2525
     15 N          60.8502   86.5861    8.9180 N.am    1  UNL1       -0.2683
     16 H          59.7801   85.2000    6.7610 H       1  UNL1        0.1510
     17 H          59.8788   86.7338    8.8557 H       1  UNL1        0.1564
     18 C          65.1167   91.3215   14.3146 C.3     1  UNL1        0.1410
     19 O          64.3937   90.4903   15.3326 O.3     1  UNL1       -0.3771
     20 H          63.7566   89.9121   14.8845 H       1  UNL1        0.2112
     21 C          65.8397   92.1527   13.2965 C.ar    1  UNL1        0.0825
     22 C          66.9442   91.6818   12.3975 C.ar    1  UNL1        0.1157
     23 N          67.3722   92.8387   11.5441 N.ar    1  UNL1       -0.2228
     24 C          66.5323   94.0246   11.9159 C.ar    1  UNL1        0.1749
     25 N          65.5851   93.6006   12.9989 N.ar    1  UNL1       -0.3361
     26 H          64.9142   94.1722   13.4375 H       1  UNL1        0.1673
     27 C          65.9060   91.9759   15.4094 C.3     1  UNL1        0.0340
     28 C          65.1961   92.6466   16.5479 C.3     1  UNL1        0.0031
     29 C          67.4054   91.9595   15.3658 C.3     1  UNL1        0.0031
@<TRIPOS>BOND
     1    11    12    1
     2    12    13   am
     3    13    14    2
     4    13    15   am
     5    15     1    1
     6     1     2   ar
     7     2     3   ar
     8     3     4   ar
     9     4     5   ar
    10     5     6   ar
    11     6    18    1
    12    18    19    1
    13    18    21    1
    14    21    22   ar
    15    22    23   ar
    16    23    24   ar
    17    24    25   ar
    18    18    27    1
    19    27    28    1
    20    27    29    1
    21     6     7   ar
    22     7     8   ar
    23     8     9   ar
    24     9    10   ar
    25    10     1   ar
    26     9     4   ar
    27    25    21   ar
    28    12    16    1
    29    15    17    1
    30    19    20    1
    31    25    26    1
@<TRIPOS>MOLECULE
*****
 29 31 0 0 0
SMALL
GASTEIGER

@<TRIPOS>ATOM
      1 C          61.4492   88.5819   10.1753 C.ar    1  UNL1        0.0516
      2 C          61.6348   89.9738    9.6481 C.ar    1  UNL1        0.0147
      3 C          62.5316   90.9357   10.3696 C.ar    1  UNL1        0.0013
      4 C          63.2426   90.5056   11.6184 C.ar    1  UNL1       -0.0001
      5 C          64.1394   91.4675   12.3399 C.ar    1  UNL1       -0.0017
      6 C          64.8504   91.0375   13.5887 C.ar    1  UNL1        0.0070
      7 C          64.6648   89.6455   14.1159 C.ar    1  UNL1       -0.0017
      8 C          63.7681   88.6836   13.3944 C.ar    1  UNL1       -0.0002
      9 C          63.0570   89.1137   12.1456 C.ar    1  UNL1        0.0012
     10 C          62.1602   88.1518   11.4240 C.ar    1  UNL1        0.0147
     11 C          60.8337   84.5954    6.8996 C.3     1  UNL1        0.1122
     12 N          60.2447   85.6268    7.8159 N.am    1  UNL1       -0.2869
     13 C          61.1414   86.5887    8.5375 C.2     1  UNL1        0.3045
     14 O          62.6271   86.5192    8.3428 O.2     1  UNL1       -0.2525
     15 N          60.5525   87.6200    9.4537 N.am    1  UNL1       -0.2683
     16 H          59.2696   85.6723    7.9437 H       1  UNL1        0.1510
     17 H          59.5773   87.6655    9.5815 H       1  UNL1        0.1564
     18 C          65.7472   91.9994   14.3102 C.3     1  UNL1        0.1410
     19 O          64.8854   91.8858   15.5327 O.3     1  UNL1       -0.3771
     20 H          64.1529   91.2748   15.3563 H       1  UNL1        0.2112
     21 C          66.6090   92.1130   13.0878 C.ar    1  UNL1        0.0825
     22 C          68.0160   91.6116   12.9514 C.ar    1  UNL1        0.1157
     23 N          68.4917   91.9367   11.5664 N.ar    1  UNL1       -0.2228
     24 C          67.3785   92.6389   10.8469 C.ar    1  UNL1        0.1749
     25 N          66.2149   92.7479   11.7872 N.ar    1  UNL1       -0.3361
     26 H          65.3452   93.1632   11.5861 H       1  UNL1        0.1673
     27 C          66.6439   92.9613   15.0318 C.3     1  UNL1        0.0340
     28 C          66.9232   94.3122   14.4429 C.3     1  UNL1        0.0031
     29 C          67.2613   92.5721   16.3423 C.3     1  UNL1        0.0031
@<TRIPOS>BOND
     1    11    12    1
     2    12    13   am
     3    13    14    2
     4    13    15   am
     5    15     1    1
     6     1     2   ar
     7     2     3   ar
     8     3     4   ar
     9     4     5   ar
    10     5     6   ar
    11     6    18    1
    12    18    19    1
    13    18    21    1
    14    21    22   ar
    15    22    23   ar
    16    23    24   ar
    17    24    25   ar
    18    18    27    1
    19    27    28    1
    20    27    29    1
    21     6     7   ar
    22     7     8   ar
    23     8     9   ar
    24     9    10   ar
    25    10     1   ar
    26     9     4   ar
    27    25    21   ar
    28    12    16    1
    29    15    17    1
    30    19    20    1
    31    25    26    1
@<TRIPOS>MOLECULE
*****
 29 31 0 0 0
SMALL
GASTEIGER

@<TRIPOS>ATOM
      1 C          61.3656   86.6658    9.4033 C.ar    1  UNL1        0.0516
      2 C          61.8367   85.8447   10.5668 C.ar    1  UNL1        0.0147
      3 C          62.5463   86.5043   11.7120 C.ar    1  UNL1        0.0013
      4 C          62.7848   87.9851   11.6936 C.ar    1  UNL1       -0.0001
      5 C          63.4944   88.6447   12.8387 C.ar    1  UNL1       -0.0017
      6 C          63.7330   90.1255   12.8204 C.ar    1  UNL1        0.0070
      7 C          63.2619   90.9467   11.6568 C.ar    1  UNL1       -0.0017
      8 C          62.5523   90.2871   10.5117 C.ar    1  UNL1       -0.0002
      9 C          62.3138   88.8062   10.5301 C.ar    1  UNL1        0.0012
     10 C          61.6042   88.1466    9.3849 C.ar    1  UNL1        0.0147
     11 C          61.5040   83.7687    5.0920 C.3     1  UNL1        0.1122
     12 N          60.7252   84.5576    6.1025 N.am    1  UNL1       -0.2869
     13 C          61.4348   85.2173    7.2477 C.2     1  UNL1        0.3045
     14 O          62.9232   85.0880    7.3822 O.2     1  UNL1       -0.2525
     15 N          60.6560   86.0062    8.2582 N.am    1  UNL1       -0.2683
     16 H          59.7483   84.6425    6.0142 H       1  UNL1        0.1510
     17 H          59.6792   86.0910    8.1698 H       1  UNL1        0.1564
     18 C          64.4426   90.7851   13.9655 C.3     1  UNL1        0.1410
     19 O          64.9994   91.8147   13.0274 O.3     1  UNL1       -0.3771
     20 H          64.6868   91.6344   12.1270 H       1  UNL1        0.2112
     21 C          63.8857   89.7556   14.9036 C.ar    1  UNL1        0.0825
     22 C          64.4733   88.4030   15.1776 C.ar    1  UNL1        0.1157
     23 N          63.5943   87.7094   16.1757 N.ar    1  UNL1       -0.2228
     24 C          62.4635   88.6334   16.5185 C.ar    1  UNL1        0.1749
     25 N          62.6437   89.8980   15.7323 N.ar    1  UNL1       -0.3361
     26 H          62.0508   90.6836   15.7560 H       1  UNL1        0.1673
     27 C          65.1522   91.4448   15.1106 C.3     1  UNL1        0.0340
     28 C          66.6425   91.6106   15.0740 C.3     1  UNL1        0.0031
     29 C          64.3714   91.9386   16.2924 C.3     1  UNL1        0.0031
@<TRIPOS>BOND
     1    11    12    1
     2    12    13   am
     3    13    14    2
     4    13    15   am
     5    15     1    1
     6     1     2   ar
     7     2     3   ar
     8     3     4   ar
     9     4     5   ar
    10     5     6   ar
    11     6    18    1
    12    18    19    1
    13    18    21    1
    14    21    22   ar
    15    22    23   ar
    16    23    24   ar
    17    24    25   ar
    18    18    27    1
    19    27    28    1
    20    27    29    1
    21     6     7   ar
    22     7     8   ar
    23     8     9   ar
    24     9    10   ar
    25    10     1   ar
    26     9     4   ar
    27    25    21   ar
    28    12    16    1
    29    15    17    1
    30    19    20    1
    31    25    26    1
@<TRIPOS>MOLECULE
*****
 29 31 0 0 0
SMALL
GASTEIGER

@<TRIPOS>ATOM
      1 C          63.0344   86.0146   13.2629 C.ar    1  UNL1        0.0516
      2 C          63.9175   85.9888   14.4751 C.ar    1  UNL1        0.0147
      3 C          64.6532   87.2272   14.8935 C.ar    1  UNL1        0.0013
      4 C          64.5059   88.4914   14.0998 C.ar    1  UNL1       -0.0001
      5 C          65.2416   89.7298   14.5182 C.ar    1  UNL1       -0.0017
      6 C          65.0943   90.9939   13.7245 C.ar    1  UNL1        0.0070
      7 C          64.2112   91.0198   12.5122 C.ar    1  UNL1       -0.0017
      8 C          63.4755   89.7814   12.0938 C.ar    1  UNL1       -0.0002
      9 C          63.6228   88.5172   12.8876 C.ar    1  UNL1        0.0012
     10 C          62.8871   87.2788   12.4691 C.ar    1  UNL1        0.0147
     11 C          63.0901   81.1193   11.5213 C.3     1  UNL1        0.1122
     12 N          62.3265   82.3286   11.9736 N.am    1  UNL1       -0.2869
     13 C          63.0622   83.5670   12.3921 C.2     1  UNL1        0.3045
     14 O          64.5616   83.5961   12.3582 O.2     1  UNL1       -0.2525
     15 N          62.2987   84.7763   12.8444 N.am    1  UNL1       -0.2683
     16 H          61.3424   82.3095   11.9958 H       1  UNL1        0.1510
     17 H          61.3146   84.7572   12.8666 H       1  UNL1        0.1564
     18 C          65.8301   92.2323   14.1430 C.3     1  UNL1        0.1410
     19 O          65.0760   92.2422   15.4396 O.3     1  UNL1       -0.3771
     20 H          64.4649   91.4893   15.4640 H       1  UNL1        0.2112
     21 C          66.5842   92.2224   12.8463 C.ar    1  UNL1        0.0825
     22 C          67.9913   91.7422   12.6485 C.ar    1  UNL1        0.1157
     23 N          68.3403   91.9140   11.1998 N.ar    1  UNL1       -0.2228
     24 C          67.1488   92.5005   10.5024 C.ar    1  UNL1        0.1749
     25 N          66.0634   92.6911   11.5201 N.ar    1  UNL1       -0.3361
     26 H          65.1667   93.0591   11.3477 H       1  UNL1        0.1673
     27 C          66.5658   93.4707   14.5614 C.3     1  UNL1        0.0340
     28 C          66.5073   94.7025   13.7075 C.3     1  UNL1        0.0031
     29 C          67.3601   93.4773   15.8339 C.3     1  UNL1        0.0031
@<TRIPOS>BOND
     1    11    12    1
     2    12    13   am
     3    13    14    2
     4    13    15   am
     5    15     1    1
     6     1     2   ar
     7     2     3   ar
     8     3     4   ar
     9     4     5   ar
    10     5     6   ar
    11     6    18    1
    12    18    19    1
    13    18    21    1
    14    21    22   ar
    15    22    23   ar
    16    23    24   ar
    17    24    25   ar
    18    18    27    1
    19    27    28    1
    20    27    29    1
    21     6     7   ar
    22     7     8   ar
    23     8     9   ar
    24     9    10   ar
    25    10     1   ar
    26     9     4   ar
    27    25    21   ar
    28    12    16    1
    29    15    17    1
    30    19    20    1
    31    25    26    1
