@<TRIPOS>MOLECULE
*****
 31 33 0 0 0
SMALL
GASTEIGER

@<TRIPOS>ATOM
      1 C          61.1432   89.0902   10.6606 C.ar    1  UNL1        0.1386
      2 C          61.4987   90.0050    9.5264 C.ar    1  UNL1        0.0369
      3 C          62.6321   90.9765    9.6734 C.ar    1  UNL1        0.0031
      4 C          63.4100   91.0332   10.9546 C.ar    1  UNL1       -0.0001
      5 C          64.5434   92.0047   11.1016 C.ar    1  UNL1       -0.0024
      6 C          65.3212   92.0613   12.3829 C.ar    1  UNL1       -0.0004
      7 C          64.9657   91.1464   13.5172 C.ar    1  UNL1       -0.0024
      8 C          63.8323   90.1749   13.3702 C.ar    1  UNL1       -0.0002
      9 C          63.0544   90.1183   12.0889 C.ar    1  UNL1        0.0030
     10 C          61.9210   89.1468   11.9419 C.ar    1  UNL1        0.0369
     11 O          60.0098   88.1187   10.5137 O.3     1  UNL1       -0.4751
     12 C          60.2921   86.6517   10.3787 C.3     1  UNL1        0.2103
     13 C          60.9826   86.1305    9.1533 C.3     1  UNL1        0.0723
     14 C          61.6731   85.6092    7.9279 C.2     1  UNL1        0.0532
     15 O          60.8651   85.1306    6.7582 O.co2   1  UNL1       -0.5491
     16 O          63.1714   85.5667    7.8722 O.co2   1  UNL1       -0.5491
     17 C          59.5598   87.6883    7.6370 C.3     1  UNL1        0.0005
     18 C          59.7419   86.3801    8.3480 C.3     1  UNL1        0.0088
     19 C          62.2232   85.8808    9.9586 C.3     1  UNL1        0.0088
     20 C          62.1145   85.3707   11.3649 C.3     1  UNL1        0.0005
     21 C          66.4546   93.0328   12.5299 C.3     1  UNL1        0.1240
     22 N          67.3126   93.0037   13.7599 N.ar    1  UNL1       -0.3045
     23 C          67.1518   93.8783   14.9679 C.ar    1  UNL1        0.0983
     24 C          68.2218   93.5101   15.9525 C.ar    1  UNL1        0.1193
     25 N          69.0440   92.4079   15.3530 N.ar    1  UNL1       -0.2223
     26 C          68.4821   92.0950   13.9979 C.ar    1  UNL1        0.1788
     27 C          66.7300   94.0334   11.4468 C.3     1  UNL1        0.0827
     28 C          66.1708   95.4216   11.5483 C.3     1  UNL1        0.0197
     29 N          67.5646   93.6458   10.2622 N.3     1  UNL1       -0.2696
     30 C          67.8366   94.6452    9.1771 C.3     1  UNL1        0.0897
     31 C          68.1272   92.2589   10.1627 C.3     1  UNL1        0.0897
@<TRIPOS>UNITY_ATOM_ATTR
15 1
charge -1
@<TRIPOS>BOND
     1    17    18    1
     2    18    13    1
     3    13    19    1
     4    19    20    1
     5    13    12    1
     6    12    11    1
     7    11     1    1
     8     1     2   ar
     9     2     3   ar
    10     3     4   ar
    11     4     5   ar
    12     5     6   ar
    13     6    21    1
    14    21    27    1
    15    27    28    1
    16    27    29    1
    17    29    30    1
    18    29    31    1
    19    21    22    1
    20    22    23   ar
    21    23    24   ar
    22    24    25   ar
    23    25    26   ar
    24     6     7   ar
    25     7     8   ar
    26     8     9   ar
    27     9    10   ar
    28    13    14    1
    29    14    15   ar
    30    14    16   ar
    31    10     1   ar
    32     9     4   ar
    33    26    22   ar
@<TRIPOS>MOLECULE
*****
 31 33 0 0 0
SMALL
GASTEIGER

@<TRIPOS>ATOM
      1 C          64.2808   90.8965   14.2472 C.ar    1  UNL1        0.1386
      2 C          63.5580   90.9124   12.9329 C.ar    1  UNL1        0.0369
      3 C          63.1858   89.6214   12.2660 C.ar    1  UNL1        0.0031
      4 C          63.5364   88.3145   12.9134 C.ar    1  UNL1       -0.0001
      5 C          63.1642   87.0235   12.2465 C.ar    1  UNL1       -0.0024
      6 C          63.5148   85.7166   12.8939 C.ar    1  UNL1       -0.0004
      7 C          64.2377   85.7007   14.2082 C.ar    1  UNL1       -0.0024
      8 C          64.6099   86.9917   14.8751 C.ar    1  UNL1       -0.0002
      9 C          64.2592   88.2987   14.2277 C.ar    1  UNL1        0.0030
     10 C          64.6314   89.5897   14.8945 C.ar    1  UNL1        0.0369
     11 O          64.6530   92.1876   14.9140 O.3     1  UNL1       -0.4751
     12 C          66.0365   92.7440   14.7518 C.3     1  UNL1        0.2103
     13 C          66.8408   92.4097   13.5305 C.3     1  UNL1        0.0723
     14 C          67.6451   92.0755   12.3093 C.2     1  UNL1        0.0532
     15 O          69.0797   91.6592   12.4469 O.co2   1  UNL1       -0.5491
     16 O          67.0150   92.1576   10.9506 O.co2   1  UNL1       -0.5491
     17 C          66.2870   94.6805   12.3961 C.3     1  UNL1        0.0005
     18 C          65.9256   93.2560   12.6961 C.3     1  UNL1        0.0088
     19 C          67.7561   91.5635   14.3649 C.3     1  UNL1        0.0088
     20 C          68.1126   91.9926   15.7573 C.3     1  UNL1        0.0005
     21 C          63.1426   84.4256   12.2271 C.3     1  UNL1        0.1240
     22 N          62.6166   83.2834   13.0448 N.ar    1  UNL1       -0.3045
     23 C          62.2946   81.9096   12.5360 C.ar    1  UNL1        0.0983
     24 C          61.7992   81.0916   13.6916 C.ar    1  UNL1        0.1193
     25 N          61.8150   81.9600   14.9147 N.ar    1  UNL1       -0.2223
     26 C          62.3202   83.3146   14.5149 C.ar    1  UNL1        0.1788
     27 C          63.2965   84.2767   10.7424 C.3     1  UNL1        0.0827
     28 C          64.2448   83.2567   10.1852 C.3     1  UNL1        0.0197
     29 N          62.5022   85.1478    9.8149 N.3     1  UNL1       -0.2696
     30 C          63.0058   85.4230    8.4290 C.3     1  UNL1        0.0897
     31 C          61.2043   85.7438   10.2734 C.3     1  UNL1        0.0897
@<TRIPOS>UNITY_ATOM_ATTR
15 1
charge -1
@<TRIPOS>BOND
     1    17    18    1
     2    18    13    1
     3    13    19    1
     4    19    20    1
     5    13    12    1
     6    12    11    1
     7    11     1    1
     8     1     2   ar
     9     2     3   ar
    10     3     4   ar
    11     4     5   ar
    12     5     6   ar
    13     6    21    1
    14    21    27    1
    15    27    28    1
    16    27    29    1
    17    29    30    1
    18    29    31    1
    19    21    22    1
    20    22    23   ar
    21    23    24   ar
    22    24    25   ar
    23    25    26   ar
    24     6     7   ar
    25     7     8   ar
    26     8     9   ar
    27     9    10   ar
    28    13    14    1
    29    14    15   ar
    30    14    16   ar
    31    10     1   ar
    32     9     4   ar
    33    26    22   ar
@<TRIPOS>MOLECULE
*****
 31 33 0 0 0
SMALL
GASTEIGER

@<TRIPOS>ATOM
      1 C          64.7621   91.4735   14.2786 C.ar    1  UNL1        0.1386
      2 C          64.8024   90.1171   14.9178 C.ar    1  UNL1        0.0369
      3 C          64.2164   88.9344   14.2051 C.ar    1  UNL1        0.0031
      4 C          63.5900   89.1081   12.8533 C.ar    1  UNL1       -0.0001
      5 C          63.0039   87.9255   12.1407 C.ar    1  UNL1       -0.0024
      6 C          62.3775   88.0992   10.7889 C.ar    1  UNL1       -0.0004
      7 C          62.3371   89.4556   10.1497 C.ar    1  UNL1       -0.0024
      8 C          62.9232   90.6383   10.8623 C.ar    1  UNL1       -0.0002
      9 C          63.5496   90.4645   12.2142 C.ar    1  UNL1        0.0030
     10 C          64.1357   91.6472   12.9268 C.ar    1  UNL1        0.0369
     11 O          65.3481   92.6561   14.9912 O.3     1  UNL1       -0.4751
     12 C          66.4329   93.4620   14.3403 C.3     1  UNL1        0.2103
     13 C          67.4961   92.7761   13.5347 C.3     1  UNL1        0.0723
     14 C          68.5593   92.0902   12.7290 C.2     1  UNL1        0.0532
     15 O          68.3451   91.8361   11.2662 O.co2   1  UNL1       -0.5491
     16 O          69.8367   91.6583   13.3860 O.co2   1  UNL1       -0.5491
     17 C          66.2397   94.5375   12.0963 C.3     1  UNL1        0.0005
     18 C          66.7790   93.1487   12.2710 C.3     1  UNL1        0.0088
     19 C          68.2133   92.4034   14.7983 C.3     1  UNL1        0.0088
     20 C          68.4937   93.4481   15.8375 C.3     1  UNL1        0.0005
     21 C          61.7914   86.9165   10.0763 C.3     1  UNL1        0.1240
     22 N          60.7254   87.1177    9.0404 N.ar    1  UNL1       -0.3045
     23 C          60.1423   88.4341    8.6195 C.ar    1  UNL1        0.0983
     24 C          59.1119   88.1678    7.5625 C.ar    1  UNL1        0.1193
     25 N          59.0581   86.6868    7.3302 N.ar    1  UNL1       -0.2223
     26 C          60.0553   86.0379    8.2436 C.ar    1  UNL1        0.1788
     27 C          62.2714   85.5326   10.3996 C.3     1  UNL1        0.0827
     28 C          61.9029   84.8974   11.7076 C.3     1  UNL1        0.0197
     29 N          63.1199   84.7839    9.4150 N.3     1  UNL1       -0.2696
     30 C          63.2227   85.2625    7.9970 C.3     1  UNL1        0.0897
     31 C          63.8657   83.5567    9.8482 C.3     1  UNL1        0.0897
@<TRIPOS>UNITY_ATOM_ATTR
15 1
charge -1
@<TRIPOS>BOND
     1    17    18    1
     2    18    13    1
     3    13    19    1
     4    19    20    1
     5    13    12    1
     6    12    11    1
     7    11     1    1
     8     1     2   ar
     9     2     3   ar
    10     3     4   ar
    11     4     5   ar
    12     5     6   ar
    13     6    21    1
    14    21    27    1
    15    27    28    1
    16    27    29    1
    17    29    30    1
    18    29    31    1
    19    21    22    1
    20    22    23   ar
    21    23    24   ar
    22    24    25   ar
    23    25    26   ar
    24     6     7   ar
    25     7     8   ar
    26     8     9   ar
    27     9    10   ar
    28    13    14    1
    29    14    15   ar
    30    14    16   ar
    31    10     1   ar
    32     9     4   ar
    33    26    22   ar
@<TRIPOS>MOLECULE
*****
 31 33 0 0 0
SMALL
GASTEIGER

@<TRIPOS>ATOM
      1 C          64.6282   91.2347   14.2907 C.ar    1  UNL1        0.1386
      2 C          64.6953   89.8849   14.9412 C.ar    1  UNL1        0.0369
      3 C          64.1869   88.6756   14.2138 C.ar    1  UNL1        0.0031
      4 C          63.6113   88.8162   12.8359 C.ar    1  UNL1       -0.0001
      5 C          63.1029   87.6069   12.1084 C.ar    1  UNL1       -0.0024
      6 C          62.5273   87.7475   10.7305 C.ar    1  UNL1       -0.0004
      7 C          62.4602   89.0974   10.0798 C.ar    1  UNL1       -0.0024
      8 C          62.9686   90.3067   10.8072 C.ar    1  UNL1       -0.0002
      9 C          63.5442   90.1660   12.1853 C.ar    1  UNL1        0.0030
     10 C          64.0526   91.3753   12.9127 C.ar    1  UNL1        0.0369
     11 O          65.1366   92.4440   15.0181 O.3     1  UNL1       -0.4751
     12 C          66.1474   93.3409   14.3671 C.3     1  UNL1        0.2103
     13 C          67.3332   92.7490   13.6645 C.3     1  UNL1        0.0723
     14 C          68.5189   92.1570   12.9619 C.2     1  UNL1        0.0532
     15 O          69.8176   91.9896   13.6936 O.co2   1  UNL1       -0.5491
     16 O          68.4059   91.7325   11.5277 O.co2   1  UNL1       -0.5491
     17 C          68.2525   93.5039   15.9742 C.3     1  UNL1        0.0005
     18 C          67.9508   92.4133   14.9896 C.3     1  UNL1        0.0088
     19 C          66.7155   93.0846   12.3394 C.3     1  UNL1        0.0088
     20 C          66.2586   94.4853   12.0582 C.3     1  UNL1        0.0005
     21 C          62.0189   86.5382   10.0030 C.3     1  UNL1        0.1240
     22 N          62.5771   85.1825   10.3200 N.ar    1  UNL1       -0.3045
     23 C          62.3222   84.3944   11.5705 C.ar    1  UNL1        0.0983
     24 C          63.0758   83.1017   11.4655 C.ar    1  UNL1        0.1193
     25 N          63.7966   83.0909   10.1500 N.ar    1  UNL1       -0.2223
     26 C          63.4883   84.3769    9.4420 C.ar    1  UNL1        0.1788
     27 C          60.9521   86.6846    8.9586 C.3     1  UNL1        0.0827
     28 C          60.9695   85.8089    7.7409 C.3     1  UNL1        0.0197
     29 N          59.8681   87.7067    9.1320 N.3     1  UNL1       -0.2696
     30 C          59.4265   88.1056   10.5090 C.3     1  UNL1        0.0897
     31 C          59.2255   88.3300    7.9284 C.3     1  UNL1        0.0897
@<TRIPOS>UNITY_ATOM_ATTR
15 1
charge -1
@<TRIPOS>BOND
     1    17    18    1
     2    18    13    1
     3    13    19    1
     4    19    20    1
     5    13    12    1
     6    12    11    1
     7    11     1    1
     8     1     2   ar
     9     2     3   ar
    10     3     4   ar
    11     4     5   ar
    12     5     6   ar
    13     6    21    1
    14    21    27    1
    15    27    28    1
    16    27    29    1
    17    29    30    1
    18    29    31    1
    19    21    22    1
    20    22    23   ar
    21    23    24   ar
    22    24    25   ar
    23    25    26   ar
    24     6     7   ar
    25     7     8   ar
    26     8     9   ar
    27     9    10   ar
    28    13    14    1
    29    14    15   ar
    30    14    16   ar
    31    10     1   ar
    32     9     4   ar
    33    26    22   ar
@<TRIPOS>MOLECULE
*****
 31 33 0 0 0
SMALL
GASTEIGER

@<TRIPOS>ATOM
      1 C          59.2569   90.1899    6.0924 C.ar    1  UNL1        0.1386
      2 C          58.1363   91.0306    5.5563 C.ar    1  UNL1        0.0369
      3 C          58.3889   91.9858    4.4276 C.ar    1  UNL1        0.0031
      4 C          59.7621   92.1002    3.8350 C.ar    1  UNL1       -0.0001
      5 C          60.0147   93.0554    2.7064 C.ar    1  UNL1       -0.0024
      6 C          61.3879   93.1699    2.1138 C.ar    1  UNL1       -0.0004
      7 C          62.5086   92.3292    2.6499 C.ar    1  UNL1       -0.0024
      8 C          62.2560   91.3740    3.7785 C.ar    1  UNL1       -0.0002
      9 C          60.8827   91.2596    4.3711 C.ar    1  UNL1        0.0030
     10 C          60.6301   90.3044    5.4998 C.ar    1  UNL1        0.0369
     11 O          59.0044   89.2348    7.2210 O.3     1  UNL1       -0.4751
     12 C          60.1455   88.4761    7.8311 C.3     1  UNL1        0.2103
     13 C          60.1503   88.1837    9.3023 C.3     1  UNL1        0.0723
     14 C          60.1552   87.8912   10.7735 C.2     1  UNL1        0.0532
     15 O          59.3279   88.7249   11.7067 O.co2   1  UNL1       -0.5491
     16 O          60.9873   86.7652   11.3116 O.co2   1  UNL1       -0.5491
     17 C          61.9242   89.9546    9.9859 C.3     1  UNL1        0.0005
     18 C          60.5207   89.6096    9.5845 C.3     1  UNL1        0.0088
     19 C          59.7800   86.7578    9.0201 C.3     1  UNL1        0.0088
     20 C          60.3713   86.0493    7.8376 C.3     1  UNL1        0.0005
     21 C          61.6404   94.1250    0.9851 C.3     1  UNL1        0.1240
     22 N          63.0094   94.7046    0.7852 N.ar    1  UNL1       -0.3045
     23 C          63.5767   95.8938    1.5019 C.ar    1  UNL1        0.0983
     24 C          64.9693   96.1209    0.9931 C.ar    1  UNL1        0.1193
     25 N          65.2628   95.0719   -0.0382 N.ar    1  UNL1       -0.2223
     26 C          64.0515   94.1966   -0.1667 C.ar    1  UNL1        0.1788
     27 C          60.5240   94.5006    0.0564 C.3     1  UNL1        0.0827
     28 C          59.7445   95.7604    0.2916 C.3     1  UNL1        0.0197
     29 N          60.1870   93.6165   -1.1075 N.3     1  UNL1       -0.2696
     30 C          59.1093   92.5814   -0.9758 C.3     1  UNL1        0.0897
     31 C          60.9278   93.7673   -2.4031 C.3     1  UNL1        0.0897
@<TRIPOS>UNITY_ATOM_ATTR
15 1
charge -1
@<TRIPOS>BOND
     1    17    18    1
     2    18    13    1
     3    13    19    1
     4    19    20    1
     5    13    12    1
     6    12    11    1
     7    11     1    1
     8     1     2   ar
     9     2     3   ar
    10     3     4   ar
    11     4     5   ar
    12     5     6   ar
    13     6    21    1
    14    21    27    1
    15    27    28    1
    16    27    29    1
    17    29    30    1
    18    29    31    1
    19    21    22    1
    20    22    23   ar
    21    23    24   ar
    22    24    25   ar
    23    25    26   ar
    24     6     7   ar
    25     7     8   ar
    26     8     9   ar
    27     9    10   ar
    28    13    14    1
    29    14    15   ar
    30    14    16   ar
    31    10     1   ar
    32     9     4   ar
    33    26    22   ar
@<TRIPOS>MOLECULE
*****
 31 33 0 0 0
SMALL
GASTEIGER

@<TRIPOS>ATOM
      1 C          64.1827   90.5148   13.5020 C.ar    1  UNL1        0.1386
      2 C          64.8191   89.8010   14.6577 C.ar    1  UNL1        0.0369
      3 C          64.7013   88.3103   14.7753 C.ar    1  UNL1        0.0031
      4 C          63.9471   87.5333   13.7374 C.ar    1  UNL1       -0.0001
      5 C          63.8293   86.0426   13.8551 C.ar    1  UNL1       -0.0024
      6 C          63.0751   85.2656   12.8171 C.ar    1  UNL1       -0.0004
      7 C          62.4386   85.9793   11.6614 C.ar    1  UNL1       -0.0024
      8 C          62.5565   87.4701   11.5437 C.ar    1  UNL1       -0.0002
      9 C          63.3107   88.2471   12.5818 C.ar    1  UNL1        0.0030
     10 C          63.4285   89.7378   12.4641 C.ar    1  UNL1        0.0369
     11 O          64.3006   92.0055   13.3844 O.3     1  UNL1       -0.4751
     12 C          65.6457   92.6617   13.4836 C.3     1  UNL1        0.2103
     13 C          66.5360   92.7333   12.2785 C.3     1  UNL1        0.0723
     14 C          67.4263   92.8049   11.0734 C.2     1  UNL1        0.0532
     15 O          67.6024   94.1056   10.3472 O.co2   1  UNL1       -0.5491
     16 O          68.1404   91.5758   10.5944 O.co2   1  UNL1       -0.5491
     17 C          64.7353   92.5410   10.4155 C.3     1  UNL1        0.0005
     18 C          65.4158   93.3404   11.4870 C.3     1  UNL1        0.0088
     19 C          67.6562   92.1262   13.0700 C.3     1  UNL1        0.0088
     20 C          67.6703   92.2481   14.5649 C.3     1  UNL1        0.0005
     21 C          62.9573   83.7749   12.9348 C.3     1  UNL1        0.1240
     22 N          63.3712   82.8972   11.7910 N.ar    1  UNL1       -0.3045
     23 C          62.6579   81.6633   11.3235 C.ar    1  UNL1        0.0983
     24 C          63.4169   81.1028   10.1574 C.ar    1  UNL1        0.1193
     25 N          64.5994   81.9904    9.9042 N.ar    1  UNL1       -0.2223
     26 C          64.5711   83.0993   10.9139 C.ar    1  UNL1        0.1788
     27 C          62.4255   83.1618   14.1963 C.3     1  UNL1        0.0827
     28 C          62.0360   84.0381   15.3497 C.3     1  UNL1        0.0197
     29 N          62.2833   81.6725   14.3045 N.3     1  UNL1       -0.2696
     30 C          63.5000   80.8141   14.4856 C.3     1  UNL1        0.0897
     31 C          60.9244   81.0416   14.2314 C.3     1  UNL1        0.0897
@<TRIPOS>UNITY_ATOM_ATTR
15 1
charge -1
@<TRIPOS>BOND
     1    17    18    1
     2    18    13    1
     3    13    19    1
     4    19    20    1
     5    13    12    1
     6    12    11    1
     7    11     1    1
     8     1     2   ar
     9     2     3   ar
    10     3     4   ar
    11     4     5   ar
    12     5     6   ar
    13     6    21    1
    14    21    27    1
    15    27    28    1
    16    27    29    1
    17    29    30    1
    18    29    31    1
    19    21    22    1
    20    22    23   ar
    21    23    24   ar
    22    24    25   ar
    23    25    26   ar
    24     6     7   ar
    25     7     8   ar
    26     8     9   ar
    27     9    10   ar
    28    13    14    1
    29    14    15   ar
    30    14    16   ar
    31    10     1   ar
    32     9     4   ar
    33    26    22   ar
@<TRIPOS>MOLECULE
*****
 31 33 0 0 0
SMALL
GASTEIGER

@<TRIPOS>ATOM
      1 C          59.1923   90.1826    6.1052 C.ar    1  UNL1        0.1386
      2 C          58.0583   91.0012    5.5632 C.ar    1  UNL1        0.0369
      3 C          58.2970   91.9574    4.4324 C.ar    1  UNL1        0.0031
      4 C          59.6697   92.0949    3.8435 C.ar    1  UNL1       -0.0001
      5 C          59.9083   93.0511    2.7127 C.ar    1  UNL1       -0.0024
      6 C          61.2810   93.1886    2.1239 C.ar    1  UNL1       -0.0004
      7 C          62.4151   92.3699    2.6658 C.ar    1  UNL1       -0.0024
      8 C          62.1764   91.4138    3.7967 C.ar    1  UNL1       -0.0002
      9 C          60.8037   91.2763    4.3855 C.ar    1  UNL1        0.0030
     10 C          60.5650   90.3201    5.5163 C.ar    1  UNL1        0.0369
     11 O          58.9537   89.2264    7.2360 O.3     1  UNL1       -0.4751
     12 C          60.1047   88.4800    7.8427 C.3     1  UNL1        0.2103
     13 C          60.1176   88.1887    9.3141 C.3     1  UNL1        0.0723
     14 C          60.1305   87.8973   10.7855 C.2     1  UNL1        0.0532
     15 O          60.9602   86.7672   11.3190 O.co2   1  UNL1       -0.5491
     16 O          59.3137   88.7359   11.7233 O.co2   1  UNL1       -0.5491
     17 C          60.3301   86.0541    7.8484 C.3     1  UNL1        0.0005
     18 C          59.7466   86.7623    9.0349 C.3     1  UNL1        0.0088
     19 C          60.4885   89.6150    9.5933 C.3     1  UNL1        0.0088
     20 C          61.9017   89.9657    9.9536 C.3     1  UNL1        0.0005
     21 C          61.5197   94.1448    0.9930 C.3     1  UNL1        0.1240
     22 N          60.4263   94.4264    0.0055 N.ar    1  UNL1       -0.3045
     23 C          59.5416   95.6376   -0.0088 C.ar    1  UNL1        0.0983
     24 C          58.5942   95.5060   -1.1642 C.ar    1  UNL1        0.1193
     25 N          58.8934   94.2133   -1.8641 N.ar    1  UNL1       -0.2223
     26 C          60.0257   93.5461   -1.1411 C.ar    1  UNL1        0.1788
     27 C          62.8518   94.8194    0.8498 C.3     1  UNL1        0.0827
     28 C          63.1062   96.1299    1.5339 C.3     1  UNL1        0.0197
     29 N          63.9293   94.1836    0.0224 N.3     1  UNL1       -0.2696
     30 C          63.7426   94.0231   -1.4573 C.3     1  UNL1        0.0897
     31 C          65.1937   93.7083    0.6747 C.3     1  UNL1        0.0897
@<TRIPOS>UNITY_ATOM_ATTR
15 1
charge -1
@<TRIPOS>BOND
     1    17    18    1
     2    18    13    1
     3    13    19    1
     4    19    20    1
     5    13    12    1
     6    12    11    1
     7    11     1    1
     8     1     2   ar
     9     2     3   ar
    10     3     4   ar
    11     4     5   ar
    12     5     6   ar
    13     6    21    1
    14    21    27    1
    15    27    28    1
    16    27    29    1
    17    29    30    1
    18    29    31    1
    19    21    22    1
    20    22    23   ar
    21    23    24   ar
    22    24    25   ar
    23    25    26   ar
    24     6     7   ar
    25     7     8   ar
    26     8     9   ar
    27     9    10   ar
    28    13    14    1
    29    14    15   ar
    30    14    16   ar
    31    10     1   ar
    32     9     4   ar
    33    26    22   ar
@<TRIPOS>MOLECULE
*****
 31 33 0 0 0
SMALL
GASTEIGER

@<TRIPOS>ATOM
      1 C          64.8085   91.5966   14.1180 C.ar    1  UNL1        0.1386
      2 C          64.9617   90.3482   14.9353 C.ar    1  UNL1        0.0369
      3 C          64.4376   89.0424   14.4155 C.ar    1  UNL1        0.0031
      4 C          63.7602   88.9850   13.0784 C.ar    1  UNL1       -0.0001
      5 C          63.2360   87.6792   12.5586 C.ar    1  UNL1       -0.0024
      6 C          62.5586   87.6219   11.2215 C.ar    1  UNL1       -0.0004
      7 C          62.4054   88.8703   10.4042 C.ar    1  UNL1       -0.0024
      8 C          62.9295   90.1761   10.9240 C.ar    1  UNL1       -0.0002
      9 C          63.6069   90.2334   12.2611 C.ar    1  UNL1        0.0030
     10 C          64.1311   91.5392   12.7809 C.ar    1  UNL1        0.0369
     11 O          65.3326   92.9024   14.6378 O.3     1  UNL1       -0.4751
     12 C          66.4885   93.5717   13.9552 C.3     1  UNL1        0.2103
     13 C          66.9556   93.0810   12.6169 C.3     1  UNL1        0.0723
     14 C          67.4227   92.5904   11.2786 C.2     1  UNL1        0.0532
     15 O          66.5456   92.7524   10.0725 O.co2   1  UNL1       -0.5491
     16 O          68.7668   91.9379   11.1463 O.co2   1  UNL1       -0.5491
     17 C          66.3755   95.5563   12.0815 C.3     1  UNL1        0.0005
     18 C          66.0790   94.0927   11.9401 C.3     1  UNL1        0.0088
     19 C          67.8322   92.0694   13.2937 C.3     1  UNL1        0.0088
     20 C          68.4711   92.3927   14.6118 C.3     1  UNL1        0.0005
     21 C          62.0345   86.3161   10.7017 C.3     1  UNL1        0.1240
     22 N          62.4142   85.0326   11.3788 N.ar    1  UNL1       -0.3045
     23 C          63.1538   83.8892   10.7498 C.ar    1  UNL1        0.0983
     24 C          63.3176   82.8171   11.7860 C.ar    1  UNL1        0.1193
     25 N          62.6792   83.2979   13.0555 N.ar    1  UNL1       -0.2223
     26 C          62.1209   84.6671   12.8038 C.ar    1  UNL1        0.1788
     27 C          61.1306   86.2938    9.5048 C.3     1  UNL1        0.0827
     28 C          59.7489   86.8702    9.5975 C.3     1  UNL1        0.0197
     29 N          61.6085   85.6952    8.2151 N.3     1  UNL1       -0.2696
     30 C          60.6230   85.3468    7.1393 C.3     1  UNL1        0.0897
     31 C          63.0719   85.4448    8.0013 C.3     1  UNL1        0.0897
@<TRIPOS>UNITY_ATOM_ATTR
15 1
charge -1
@<TRIPOS>BOND
     1    17    18    1
     2    18    13    1
     3    13    19    1
     4    19    20    1
     5    13    12    1
     6    12    11    1
     7    11     1    1
     8     1     2   ar
     9     2     3   ar
    10     3     4   ar
    11     4     5   ar
    12     5     6   ar
    13     6    21    1
    14    21    27    1
    15    27    28    1
    16    27    29    1
    17    29    30    1
    18    29    31    1
    19    21    22    1
    20    22    23   ar
    21    23    24   ar
    22    24    25   ar
    23    25    26   ar
    24     6     7   ar
    25     7     8   ar
    26     8     9   ar
    27     9    10   ar
    28    13    14    1
    29    14    15   ar
    30    14    16   ar
    31    10     1   ar
    32     9     4   ar
    33    26    22   ar
@<TRIPOS>MOLECULE
*****
 31 33 0 0 0
SMALL
GASTEIGER

@<TRIPOS>ATOM
      1 C          61.1393   88.7972   10.9410 C.ar    1  UNL1        0.1386
      2 C          61.3356   89.7857    9.8299 C.ar    1  UNL1        0.0369
      3 C          62.4147   90.8227    9.9307 C.ar    1  UNL1        0.0031
      4 C          63.2974   90.8714   11.1424 C.ar    1  UNL1       -0.0001
      5 C          64.3765   91.9084   11.2432 C.ar    1  UNL1       -0.0024
      6 C          65.2592   91.9571   12.4549 C.ar    1  UNL1       -0.0004
      7 C          65.0629   90.9686   13.5660 C.ar    1  UNL1       -0.0024
      8 C          63.9838   89.9315   13.4653 C.ar    1  UNL1       -0.0002
      9 C          63.1011   89.8829   12.2534 C.ar    1  UNL1        0.0030
     10 C          62.0220   88.8459   12.1527 C.ar    1  UNL1        0.0369
     11 O          60.0602   87.7602   10.8402 O.3     1  UNL1       -0.4751
     12 C          59.7211   87.1576    9.5091 C.3     1  UNL1        0.2103
     13 C          60.7693   86.4184    8.7315 C.3     1  UNL1        0.0723
     14 C          61.8175   85.6792    7.9538 C.2     1  UNL1        0.0532
     15 O          61.4129   84.7132    6.8799 O.co2   1  UNL1       -0.5491
     16 O          63.2704   85.9059    8.2500 O.co2   1  UNL1       -0.5491
     17 C          62.5332   85.4177   10.3554 C.3     1  UNL1        0.0005
     18 C          61.1019   85.6086    9.9495 C.3     1  UNL1        0.0088
     19 C          60.4367   87.2282    7.5134 C.3     1  UNL1        0.0088
     20 C          59.1902   88.0620    7.4845 C.3     1  UNL1        0.0005
     21 C          66.3382   92.9941   12.5556 C.3     1  UNL1        0.1240
     22 N          66.5983   93.9201   11.4046 N.ar    1  UNL1       -0.3045
     23 C          67.2567   93.5518   10.1082 C.ar    1  UNL1        0.0983
     24 C          67.3109   94.7811    9.2503 C.ar    1  UNL1        0.1193
     25 N          66.6861   95.9091   10.0166 N.ar    1  UNL1       -0.2223
     26 C          66.2457   95.3770   11.3480 C.ar    1  UNL1        0.1788
     27 C          67.1572   93.1051   13.8075 C.3     1  UNL1        0.0827
     28 C          66.6429   93.8979   14.9724 C.3     1  UNL1        0.0197
     29 N          68.4905   92.4235   13.8943 N.3     1  UNL1       -0.2696
     30 C          68.9710   91.5683   12.7595 C.3     1  UNL1        0.0897
     31 C          69.3434   92.5970   15.1160 C.3     1  UNL1        0.0897
@<TRIPOS>UNITY_ATOM_ATTR
15 1
charge -1
@<TRIPOS>BOND
     1    17    18    1
     2    18    13    1
     3    13    19    1
     4    19    20    1
     5    13    12    1
     6    12    11    1
     7    11     1    1
     8     1     2   ar
     9     2     3   ar
    10     3     4   ar
    11     4     5   ar
    12     5     6   ar
    13     6    21    1
    14    21    27    1
    15    27    28    1
    16    27    29    1
    17    29    30    1
    18    29    31    1
    19    21    22    1
    20    22    23   ar
    21    23    24   ar
    22    24    25   ar
    23    25    26   ar
    24     6     7   ar
    25     7     8   ar
    26     8     9   ar
    27     9    10   ar
    28    13    14    1
    29    14    15   ar
    30    14    16   ar
    31    10     1   ar
    32     9     4   ar
    33    26    22   ar
