@<TRIPOS>MOLECULE
*****
 33 36 0 0 0
SMALL
GASTEIGER

@<TRIPOS>ATOM
      1 C          61.8444   89.9847   11.8429 C.ar    1  UNL1        0.0764
      2 C          62.5498   90.7990   10.7993 C.ar    1  UNL1        0.0176
      3 C          63.7624   91.6016   11.1674 C.ar    1  UNL1        0.0173
      4 C          64.2695   91.5899   12.5790 C.ar    1  UNL1        0.0664
      5 C          63.5640   90.7756   13.6226 C.ar    1  UNL1        0.0723
      6 N          62.3515   89.9730   13.2546 N.ar    1  UNL1       -0.2511
      7 C          64.0711   90.7638   15.0342 C.3     1  UNL1        0.0489
      8 C          65.2836   91.5665   15.4023 C.3     1  UNL1        0.0282
      9 C          65.9892   92.3808   14.3587 C.3     1  UNL1        0.0974
     10 N          65.4821   92.3926   12.9470 N.pl3   1  UNL1       -0.2713
     11 C          66.1875   93.2069   11.9034 C.ar    1  UNL1        0.1386
     12 C          66.0504   94.7006   11.8983 C.ar    1  UNL1        0.0553
     13 C          66.7559   95.5149   10.8546 C.ar    1  UNL1        0.1034
     14 N          67.5985   94.8355    9.8161 N.ar    1  UNL1       -0.2217
     15 C          67.7357   93.3418    9.8213 C.ar    1  UNL1        0.2363
     16 N          67.0302   92.5275   10.8649 N.ar    1  UNL1       -0.2080
     17 C          68.5783   92.6624    8.7829 C.3     1  UNL1        0.4523
     18 F          69.4209   91.9830    7.7444 F       1  UNL1       -0.1632
     19 F          69.0131   91.6484    9.7991 F       1  UNL1       -0.1632
     20 F          68.1435   93.6765    7.7667 F       1  UNL1       -0.1632
     21 C          59.4073   89.2336   12.3398 C.3     1  UNL1        0.0278
     22 C          60.6318   89.1820   11.4749 C.3     1  UNL1        0.1121
     23 N          60.6436   88.3278   10.2419 N.am    1  UNL1       -0.2973
     24 C          61.5724   87.1534   10.1521 C.2     1  UNL1        0.2461
     25 O          62.4894   86.8332   11.2953 O.2     1  UNL1       -0.2701
     26 H          60.0418   88.5379    9.4917 H       1  UNL1        0.1500
     27 C          61.5843   86.2991    8.9192 C.ar    1  UNL1        0.0535
     28 C          60.3372   86.1481    8.0994 C.ar    1  UNL1        0.0068
     29 C          60.3491   85.2938    6.8664 C.ar    1  UNL1        0.0298
     30 C          61.6081   84.5907    6.4533 C.ar    1  UNL1        0.1401
     31 F          61.6200   83.7365    5.2203 F       1  UNL1       -0.2042
     32 C          62.8551   84.7418    7.2731 C.ar    1  UNL1        0.0298
     33 C          62.8432   85.5960    8.5060 C.ar    1  UNL1        0.0068
@<TRIPOS>BOND
     1    22    21    1
     2    22    23    1
     3    23    24   am
     4    24    25    2
     5    24    27    1
     6    27    28   ar
     7    28    29   ar
     8    29    30   ar
     9    30    31    1
    10    30    32   ar
    11    32    33   ar
    12    22     1    1
    13     1     2   ar
    14     2     3   ar
    15     3     4   ar
    16     4     5   ar
    17     5     6   ar
    18     5     7    1
    19     7     8    1
    20     8     9    1
    21     9    10    1
    22    10    11    1
    23    11    12   ar
    24    12    13   ar
    25    13    14   ar
    26    14    15   ar
    27    15    17    1
    28    17    18    1
    29    17    19    1
    30    17    20    1
    31    15    16   ar
    32    33    27   ar
    33     6     1   ar
    34    16    11   ar
    35    10     4    1
    36    23    26    1
@<TRIPOS>MOLECULE
*****
 33 36 0 0 0
SMALL
GASTEIGER

@<TRIPOS>ATOM
      1 C          62.4874   89.5135   11.9297 C.ar    1  UNL1        0.0764
      2 C          63.1421   90.3275   10.8532 C.ar    1  UNL1        0.0176
      3 C          64.1681   91.3606   11.2134 C.ar    1  UNL1        0.0173
      4 C          64.5395   91.5797   12.6501 C.ar    1  UNL1        0.0664
      5 C          63.8849   90.7657   13.7266 C.ar    1  UNL1        0.0723
      6 N          62.8588   89.7326   13.3663 N.ar    1  UNL1       -0.2511
      7 C          64.2563   90.9849   15.1632 C.3     1  UNL1        0.0489
      8 C          65.2824   92.0180   15.5235 C.3     1  UNL1        0.0282
      9 C          65.9371   92.8321   14.4470 C.3     1  UNL1        0.0974
     10 N          65.5657   92.6129   13.0103 N.pl3   1  UNL1       -0.2713
     11 C          66.2203   93.4269   11.9338 C.ar    1  UNL1        0.1386
     12 C          66.0477   94.9168   11.9104 C.ar    1  UNL1        0.0553
     13 C          66.7024   95.7308   10.8338 C.ar    1  UNL1        0.1034
     14 N          67.5296   95.0549    9.7808 N.ar    1  UNL1       -0.2217
     15 C          67.7023   93.5651    9.8043 C.ar    1  UNL1        0.2363
     16 N          67.0476   92.7511   10.8808 N.ar    1  UNL1       -0.2080
     17 C          68.5295   92.8892    8.7513 C.3     1  UNL1        0.4523
     18 F          69.3568   92.2133    7.6983 F       1  UNL1       -0.1632
     19 F          69.0608   91.9361    9.7805 F       1  UNL1       -0.1632
     20 F          67.9982   93.8423    7.7222 F       1  UNL1       -0.1632
     21 C          60.1690   88.8970   10.9321 C.3     1  UNL1        0.0278
     22 C          61.4613   88.4803   11.5695 C.3     1  UNL1        0.1121
     23 N          61.7275   87.0304   11.8467 N.am    1  UNL1       -0.2973
     24 C          62.3653   86.1707   10.7959 C.2     1  UNL1        0.2461
     25 O          62.7368   86.7609    9.4678 O.2     1  UNL1       -0.2701
     26 H          61.4837   86.6430   12.7183 H       1  UNL1        0.1500
     27 C          62.6315   84.7208   11.0731 C.ar    1  UNL1        0.0535
     28 C          62.2488   84.1276   12.3966 C.ar    1  UNL1        0.0068
     29 C          62.5151   82.6777   12.6738 C.ar    1  UNL1        0.0298
     30 C          63.1641   81.8209   11.6274 C.ar    1  UNL1        0.1401
     31 F          63.4303   80.3710   11.9046 F       1  UNL1       -0.2042
     32 C          63.5467   82.4141   10.3039 C.ar    1  UNL1        0.0298
     33 C          63.2805   83.8640   10.0267 C.ar    1  UNL1        0.0068
@<TRIPOS>BOND
     1    22    21    1
     2    22    23    1
     3    23    24   am
     4    24    25    2
     5    24    27    1
     6    27    28   ar
     7    28    29   ar
     8    29    30   ar
     9    30    31    1
    10    30    32   ar
    11    32    33   ar
    12    22     1    1
    13     1     2   ar
    14     2     3   ar
    15     3     4   ar
    16     4     5   ar
    17     5     6   ar
    18     5     7    1
    19     7     8    1
    20     8     9    1
    21     9    10    1
    22    10    11    1
    23    11    12   ar
    24    12    13   ar
    25    13    14   ar
    26    14    15   ar
    27    15    17    1
    28    17    18    1
    29    17    19    1
    30    17    20    1
    31    15    16   ar
    32    33    27   ar
    33     6     1   ar
    34    16    11   ar
    35    10     4    1
    36    23    26    1
@<TRIPOS>MOLECULE
*****
 33 36 0 0 0
SMALL
GASTEIGER

@<TRIPOS>ATOM
      1 C          64.0200   89.8031   13.2773 C.ar    1  UNL1        0.0764
      2 C          64.3173   88.5925   14.1115 C.ar    1  UNL1        0.0176
      3 C          63.8212   87.2442   13.6803 C.ar    1  UNL1        0.0173
      4 C          63.0278   87.1066   12.4147 C.ar    1  UNL1        0.0664
      5 C          62.7305   88.3172   11.5805 C.ar    1  UNL1        0.0723
      6 N          63.2266   89.6654   12.0117 N.ar    1  UNL1       -0.2511
      7 C          61.9371   88.1795   10.3150 C.3     1  UNL1        0.0489
      8 C          61.4409   86.8313    9.8837 C.3     1  UNL1        0.0282
      9 C          61.7382   85.6206   10.7180 C.3     1  UNL1        0.0974
     10 N          62.5316   85.7582   11.9835 N.pl3   1  UNL1       -0.2713
     11 C          62.8289   84.5476   12.8178 C.ar    1  UNL1        0.1386
     12 C          63.3039   84.7092   14.2314 C.ar    1  UNL1        0.0553
     13 C          63.6011   83.4985   15.0657 C.ar    1  UNL1        0.1034
     14 N          63.4234   82.1264   14.4863 N.ar    1  UNL1       -0.2217
     15 C          62.9485   81.9649   13.0727 C.ar    1  UNL1        0.2363
     16 N          62.6512   83.1754   12.2384 N.ar    1  UNL1       -0.2080
     17 C          62.7708   80.5927   12.4933 C.3     1  UNL1        0.4523
     18 F          62.5930   79.2206   11.9139 F       1  UNL1       -0.1632
     19 F          62.8027   81.1726   11.1103 F       1  UNL1       -0.1632
     20 F          62.7388   80.0129   13.8764 F       1  UNL1       -0.1632
     21 C          64.6717   91.4619   15.1677 C.3     1  UNL1        0.0278
     22 C          64.5162   91.1514   13.7085 C.3     1  UNL1        0.1121
     23 N          64.8567   92.1893   12.6804 N.am    1  UNL1       -0.2973
     24 C          66.2913   92.4676   12.3424 C.2     1  UNL1        0.2461
     25 O          67.3855   91.7081   13.0324 O.2     1  UNL1       -0.2701
     26 H          64.1386   92.6877   12.2276 H       1  UNL1        0.1500
     27 C          66.6319   93.5055   11.3143 C.ar    1  UNL1        0.0535
     28 C          67.3316   93.1064   10.0489 C.ar    1  UNL1        0.0068
     29 C          67.6721   94.1442    9.0208 C.ar    1  UNL1        0.0298
     30 C          67.3130   95.5812    9.2582 C.ar    1  UNL1        0.1401
     31 F          67.6536   96.6190    8.2302 F       1  UNL1       -0.2042
     32 C          66.6134   95.9802   10.5236 C.ar    1  UNL1        0.0298
     33 C          66.2729   94.9424   11.5517 C.ar    1  UNL1        0.0068
@<TRIPOS>BOND
     1    22    21    1
     2    22    23    1
     3    23    24   am
     4    24    25    2
     5    24    27    1
     6    27    28   ar
     7    28    29   ar
     8    29    30   ar
     9    30    31    1
    10    30    32   ar
    11    32    33   ar
    12    22     1    1
    13     1     2   ar
    14     2     3   ar
    15     3     4   ar
    16     4     5   ar
    17     5     6   ar
    18     5     7    1
    19     7     8    1
    20     8     9    1
    21     9    10    1
    22    10    11    1
    23    11    12   ar
    24    12    13   ar
    25    13    14   ar
    26    14    15   ar
    27    15    17    1
    28    17    18    1
    29    17    19    1
    30    17    20    1
    31    15    16   ar
    32    33    27   ar
    33     6     1   ar
    34    16    11   ar
    35    10     4    1
    36    23    26    1
@<TRIPOS>MOLECULE
*****
 33 36 0 0 0
SMALL
GASTEIGER

@<TRIPOS>ATOM
      1 C          64.3537   90.1015   15.1346 C.ar    1  UNL1        0.0764
      2 C          64.5481   89.2330   13.9272 C.ar    1  UNL1        0.0176
      3 C          64.1589   87.7852   13.9743 C.ar    1  UNL1        0.0173
      4 C          63.5751   87.2059   15.2288 C.ar    1  UNL1        0.0664
      5 C          63.3807   88.0744   16.4362 C.ar    1  UNL1        0.0723
      6 N          63.7700   89.5223   16.3891 N.ar    1  UNL1       -0.2511
      7 C          62.7970   87.4952   17.6907 C.3     1  UNL1        0.0489
      8 C          62.4077   86.0474   17.7377 C.3     1  UNL1        0.0282
      9 C          62.6021   85.1787   16.5303 C.3     1  UNL1        0.0974
     10 N          63.1859   85.7580   15.2759 N.pl3   1  UNL1       -0.2713
     11 C          63.3803   84.8895   14.0685 C.ar    1  UNL1        0.1386
     12 C          64.0711   83.5646   14.2010 C.ar    1  UNL1        0.0553
     13 C          64.2655   82.6961   12.9935 C.ar    1  UNL1        0.1034
     14 N          63.7692   83.1524   11.6536 N.ar    1  UNL1       -0.2217
     15 C          63.0784   84.4773   11.5211 C.ar    1  UNL1        0.2363
     16 N          62.8840   85.3458   12.7285 N.ar    1  UNL1       -0.2080
     17 C          62.5821   84.9337   10.1812 C.3     1  UNL1        0.4523
     18 F          62.0859   85.3900    8.8412 F       1  UNL1       -0.1632
     19 F          63.7494   84.2625    9.5202 F       1  UNL1       -0.1632
     20 F          61.4149   85.6049   10.8422 F       1  UNL1       -0.1632
     21 C          64.8453   92.3402   16.3580 C.3     1  UNL1        0.0278
     22 C          64.7430   91.5494   15.0876 C.3     1  UNL1        0.1121
     23 N          65.0299   92.2065   13.7700 N.am    1  UNL1       -0.2973
     24 C          66.4330   92.2458   13.2413 C.2     1  UNL1        0.2461
     25 O          67.5494   91.6282   14.0302 O.2     1  UNL1       -0.2701
     26 H          64.2972   92.6119   13.2522 H       1  UNL1        0.1500
     27 C          66.7200   92.9029   11.9238 C.ar    1  UNL1        0.0535
     28 C          67.5696   92.2020   10.9054 C.ar    1  UNL1        0.0068
     29 C          67.8565   92.8590    9.5878 C.ar    1  UNL1        0.0298
     30 C          67.2938   94.2170    9.2886 C.ar    1  UNL1        0.1401
     31 F          67.5807   94.8740    7.9711 F       1  UNL1       -0.2042
     32 C          66.4442   94.9178   10.3069 C.ar    1  UNL1        0.0298
     33 C          66.1573   94.2607   11.6245 C.ar    1  UNL1        0.0068
@<TRIPOS>BOND
     1    22    21    1
     2    22    23    1
     3    23    24   am
     4    24    25    2
     5    24    27    1
     6    27    28   ar
     7    28    29   ar
     8    29    30   ar
     9    30    31    1
    10    30    32   ar
    11    32    33   ar
    12    22     1    1
    13     1     2   ar
    14     2     3   ar
    15     3     4   ar
    16     4     5   ar
    17     5     6   ar
    18     5     7    1
    19     7     8    1
    20     8     9    1
    21     9    10    1
    22    10    11    1
    23    11    12   ar
    24    12    13   ar
    25    13    14   ar
    26    14    15   ar
    27    15    17    1
    28    17    18    1
    29    17    19    1
    30    17    20    1
    31    15    16   ar
    32    33    27   ar
    33     6     1   ar
    34    16    11   ar
    35    10     4    1
    36    23    26    1
