@<TRIPOS>MOLECULE
*****
 35 37 0 0 0
SMALL
GASTEIGER

@<TRIPOS>ATOM
      1 C          63.3944   86.9001   12.9174 C.3     1  UNL1        0.0241
      2 C          64.2660   87.5115   13.9741 C.3     1  UNL1        0.0232
      3 C          64.5318   88.9877   13.9653 C.3     1  UNL1        0.0938
      4 N          63.9260   89.8525   12.9000 N.am    1  UNL1       -0.2760
      5 C          64.1918   91.3288   12.8913 C.2     1  UNL1        0.2503
      6 O          63.5860   92.1937   11.8259 O.2     1  UNL1       -0.2699
      7 C          63.0544   89.2412   11.8433 C.3     1  UNL1        0.0938
      8 C          62.7886   87.7650   11.8521 C.3     1  UNL1        0.0232
      9 C          65.0634   91.9402   13.9480 C.ar    1  UNL1        0.0729
     10 C          64.6775   91.8323   15.3934 C.ar    1  UNL1        0.0354
     11 C          65.5492   92.4436   16.4501 C.ar    1  UNL1        0.1404
     12 F          65.1632   92.3357   17.8956 F       1  UNL1       -0.2042
     13 C          66.8067   93.1629   16.0613 C.ar    1  UNL1        0.0310
     14 C          67.1926   93.2708   14.6158 C.ar    1  UNL1        0.0208
     15 C          66.3211   92.6594   13.5591 C.ar    1  UNL1        0.1102
     16 S          66.7070   92.7673   12.1137 S.O2    1  UNL1        0.0106
     17 C          67.0930   92.8752   10.6682 C.3     1  UNL1        0.1816
     18 O          65.8425   93.9851   11.9737 O.2     1  UNL1       -0.1686
     19 O          67.5716   91.5496   12.2536 O.2     1  UNL1       -0.1686
     20 C          63.8753   85.2970   14.2208 C.3     1  UNL1        0.0240
     21 C          63.1286   85.4238   12.9261 C.3     1  UNL1        0.1151
     22 C          62.3819   85.5506   11.6314 C.3     1  UNL1        0.0240
     23 S          62.8628   83.9476   12.9348 S.O2    1  UNL1        0.0054
     24 O          62.4275   84.0345   14.3676 O.2     1  UNL1       -0.1687
     25 O          63.2981   83.8608   11.5020 O.2     1  UNL1       -0.1687
     26 C          62.5970   82.4713   12.9435 C.ar    1  UNL1        0.1055
     27 C          62.0359   81.8175   14.1713 C.ar    1  UNL1        0.0183
     28 C          61.7701   80.3413   14.1799 C.ar    1  UNL1        0.0013
     29 C          62.0655   79.5189   12.9607 C.ar    1  UNL1        0.0039
     30 C          62.6266   80.1727   11.7329 C.ar    1  UNL1        0.0727
     31 C          62.8924   81.6490   11.7243 C.ar    1  UNL1        0.0222
     32 C          62.9220   79.3504   10.5137 C.3     1  UNL1        0.4186
     33 F          63.2174   78.5280    9.2945 F       1  UNL1       -0.1659
     34 F          63.1315   80.6047    9.7184 F       1  UNL1       -0.1659
     35 F          62.7125   78.0960   11.3091 F       1  UNL1       -0.1659
@<TRIPOS>BOND
     1    20    21    1
     2    21    22    1
     3    21     1    1
     4     1     2    1
     5     2     3    1
     6     3     4    1
     7     4     5   am
     8     5     6    2
     9     5     9    1
    10     9    10   ar
    11    10    11   ar
    12    11    12    1
    13    11    13   ar
    14    13    14   ar
    15    14    15   ar
    16    15    16    1
    17    16    17    1
    18    16    18    2
    19    16    19    2
    20     4     7    1
    21     7     8    1
    22    21    23    1
    23    23    24    2
    24    23    25    2
    25    23    26    1
    26    26    27   ar
    27    27    28   ar
    28    28    29   ar
    29    29    30   ar
    30    30    32    1
    31    32    33    1
    32    32    34    1
    33    32    35    1
    34    30    31   ar
    35     8     1    1
    36    31    26   ar
    37    15     9   ar
@<TRIPOS>MOLECULE
*****
 35 37 0 0 0
SMALL
GASTEIGER

@<TRIPOS>ATOM
      1 C          63.4030   86.7503   13.1970 C.3     1  UNL1        0.0241
      2 C          64.2463   87.4352   14.2312 C.3     1  UNL1        0.0232
      3 C          64.5301   88.9035   14.1150 C.3     1  UNL1        0.0938
      4 N          63.9706   89.6868   12.9647 N.am    1  UNL1       -0.2760
      5 C          64.2544   91.1552   12.8485 C.2     1  UNL1        0.2503
      6 O          63.6948   91.9386   11.6982 O.2     1  UNL1       -0.2699
      7 C          63.1273   89.0019   11.9305 C.3     1  UNL1        0.0938
      8 C          62.8435   87.5336   12.0466 C.3     1  UNL1        0.0232
      9 C          65.0977   91.8402   13.8828 C.ar    1  UNL1        0.0729
     10 C          64.7264   91.7496   15.3333 C.ar    1  UNL1        0.0354
     11 C          65.5698   92.4347   16.3675 C.ar    1  UNL1        0.1404
     12 F          65.1985   92.3441   17.8180 F       1  UNL1       -0.2042
     13 C          66.7843   93.2102   15.9512 C.ar    1  UNL1        0.0310
     14 C          67.1556   93.3007   14.5007 C.ar    1  UNL1        0.0208
     15 C          66.3123   92.6158   13.4665 C.ar    1  UNL1        0.1102
     16 S          66.6836   92.7063   12.0160 S.O2    1  UNL1        0.0106
     17 C          67.0548   92.7969   10.5655 C.3     1  UNL1        0.1816
     18 O          67.6166   91.5437   12.1822 O.2     1  UNL1       -0.1686
     19 O          65.7505   93.8690   11.8497 O.2     1  UNL1       -0.1686
     20 C          63.8446   85.2455   14.6255 C.3     1  UNL1        0.0240
     21 C          63.1192   85.2819   13.3131 C.3     1  UNL1        0.1151
     22 C          62.3939   85.3182   12.0007 C.3     1  UNL1        0.0240
     23 S          62.8355   83.8136   13.4293 S.O2    1  UNL1        0.0054
     24 O          63.3630   83.6018   12.0412 O.2     1  UNL1       -0.1687
     25 O          62.3079   84.0254   14.8173 O.2     1  UNL1       -0.1687
     26 C          62.5517   82.3452   13.5455 C.ar    1  UNL1        0.1055
     27 C          63.6573   81.3501   13.3526 C.ar    1  UNL1        0.0183
     28 C          63.3735   79.8818   13.4688 C.ar    1  UNL1        0.0013
     29 C          61.9840   79.4087   13.7779 C.ar    1  UNL1        0.0039
     30 C          60.8784   80.4038   13.9707 C.ar    1  UNL1        0.0727
     31 C          61.1622   81.8721   13.8545 C.ar    1  UNL1        0.0222
     32 C          59.4889   79.9306   14.2798 C.3     1  UNL1        0.4186
     33 F          58.0994   79.4575   14.5889 F       1  UNL1       -0.1659
     34 F          59.9785   78.5131   14.3109 F       1  UNL1       -0.1659
     35 F          58.9993   81.3482   14.2487 F       1  UNL1       -0.1659
@<TRIPOS>BOND
     1    20    21    1
     2    21    22    1
     3    21     1    1
     4     1     2    1
     5     2     3    1
     6     3     4    1
     7     4     5   am
     8     5     6    2
     9     5     9    1
    10     9    10   ar
    11    10    11   ar
    12    11    12    1
    13    11    13   ar
    14    13    14   ar
    15    14    15   ar
    16    15    16    1
    17    16    17    1
    18    16    18    2
    19    16    19    2
    20     4     7    1
    21     7     8    1
    22    21    23    1
    23    23    24    2
    24    23    25    2
    25    23    26    1
    26    26    27   ar
    27    27    28   ar
    28    28    29   ar
    29    29    30   ar
    30    30    32    1
    31    32    33    1
    32    32    34    1
    33    32    35    1
    34    30    31   ar
    35     8     1    1
    36    31    26   ar
    37    15     9   ar
@<TRIPOS>MOLECULE
*****
 35 37 0 0 0
SMALL
GASTEIGER

@<TRIPOS>ATOM
      1 C          63.5694   86.4193   13.9830 C.3     1  UNL1        0.0241
      2 C          63.9016   87.3054   12.8192 C.3     1  UNL1        0.0232
      3 C          64.2164   88.7543   13.0457 C.3     1  UNL1        0.0938
      4 N          64.1991   89.3172   14.4360 N.am    1  UNL1       -0.2760
      5 C          64.5139   90.7663   14.6624 C.2     1  UNL1        0.2503
      6 O          64.4966   91.3291   16.0527 O.2     1  UNL1       -0.2699
      7 C          63.8669   88.4311   15.5998 C.3     1  UNL1        0.0938
      8 C          63.5521   86.9821   15.3732 C.3     1  UNL1        0.0232
      9 C          64.8461   91.6524   13.4987 C.ar    1  UNL1        0.0729
     10 C          64.0231   91.5858   12.2464 C.ar    1  UNL1        0.0354
     11 C          64.3553   92.4720   11.0826 C.ar    1  UNL1        0.1404
     12 F          63.5323   92.4054    9.8303 F       1  UNL1       -0.2042
     13 C          65.5105   93.4246   11.1711 C.ar    1  UNL1        0.0310
     14 C          66.3335   93.4912   12.4233 C.ar    1  UNL1        0.0208
     15 C          66.0013   92.6051   13.5871 C.ar    1  UNL1        0.1102
     16 S          66.8244   92.6717   14.8394 S.O2    1  UNL1        0.0106
     17 C          67.6474   92.7382   16.0917 C.3     1  UNL1        0.1816
     18 O          66.0592   93.8851   15.2778 O.2     1  UNL1       -0.1686
     19 O          67.5896   91.4583   14.4010 O.2     1  UNL1       -0.1686
     20 C          62.7541   85.2941   12.3801 C.3     1  UNL1        0.0240
     21 C          63.2546   84.9702   13.7565 C.3     1  UNL1        0.1151
     22 C          63.7551   84.6463   15.1329 C.3     1  UNL1        0.0240
     23 S          62.9398   83.5213   13.5300 S.O2    1  UNL1        0.0054
     24 O          63.0563   83.2656   15.0034 O.2     1  UNL1       -0.1687
     25 O          62.8232   83.7769   12.0566 O.2     1  UNL1       -0.1687
     26 C          62.6249   82.0722   13.3034 C.ar    1  UNL1        0.1055
     27 C          61.9956   81.2615   14.3974 C.ar    1  UNL1        0.0183
     28 C          61.6808   79.8126   14.1708 C.ar    1  UNL1        0.0013
     29 C          61.9953   79.1744   12.8503 C.ar    1  UNL1        0.0039
     30 C          62.6245   79.9851   11.7563 C.ar    1  UNL1        0.0727
     31 C          62.9393   81.4340   11.9829 C.ar    1  UNL1        0.0222
     32 C          62.9389   79.3468   10.4358 C.3     1  UNL1        0.4186
     33 F          63.2534   78.7086    9.1153 F       1  UNL1       -0.1659
     34 F          62.7404   77.9902   11.0442 F       1  UNL1       -0.1659
     35 F          63.1374   80.7035    9.8274 F       1  UNL1       -0.1659
@<TRIPOS>BOND
     1    20    21    1
     2    21    22    1
     3    21     1    1
     4     1     2    1
     5     2     3    1
     6     3     4    1
     7     4     5   am
     8     5     6    2
     9     5     9    1
    10     9    10   ar
    11    10    11   ar
    12    11    12    1
    13    11    13   ar
    14    13    14   ar
    15    14    15   ar
    16    15    16    1
    17    16    17    1
    18    16    18    2
    19    16    19    2
    20     4     7    1
    21     7     8    1
    22    21    23    1
    23    23    24    2
    24    23    25    2
    25    23    26    1
    26    26    27   ar
    27    27    28   ar
    28    28    29   ar
    29    29    30   ar
    30    30    32    1
    31    32    33    1
    32    32    34    1
    33    32    35    1
    34    30    31   ar
    35     8     1    1
    36    31    26   ar
    37    15     9   ar
@<TRIPOS>MOLECULE
*****
 35 37 0 0 0
SMALL
GASTEIGER

@<TRIPOS>ATOM
      1 C          61.4358   86.7085    9.1986 C.3     1  UNL1        0.0241
      2 C          61.2463   86.7640   10.6855 C.3     1  UNL1        0.0232
      3 C          62.0014   85.8200   11.5736 C.3     1  UNL1        0.0938
      4 N          62.9461   84.8206   10.9747 N.am    1  UNL1       -0.2760
      5 C          63.7012   83.8766   11.8628 C.2     1  UNL1        0.2503
      6 O          64.6459   82.8771   11.2640 O.2     1  UNL1       -0.2699
      7 C          63.1356   84.7651    9.4878 C.3     1  UNL1        0.0938
      8 C          62.3805   85.7090    8.5997 C.3     1  UNL1        0.0232
      9 C          63.5116   83.9321   13.3497 C.ar    1  UNL1        0.0729
     10 C          63.7533   85.2145   14.0893 C.ar    1  UNL1        0.0354
     11 C          63.5637   85.2700   15.5763 C.ar    1  UNL1        0.1404
     12 F          63.8053   86.5524   16.3158 F       1  UNL1       -0.2042
     13 C          63.1325   84.0430   16.3236 C.ar    1  UNL1        0.0310
     14 C          62.8908   82.7606   15.5841 C.ar    1  UNL1        0.0208
     15 C          63.0804   82.7051   14.0972 C.ar    1  UNL1        0.1102
     16 S          62.8388   81.4226   13.3576 S.O2    1  UNL1        0.0106
     17 C          62.5971   80.1402   12.6181 C.3     1  UNL1        0.1816
     18 O          64.0261   80.8071   14.0370 O.2     1  UNL1       -0.1686
     19 O          61.6515   82.0381   12.6783 O.2     1  UNL1       -0.1686
     20 C          60.2541   86.5009    7.4492 C.3     1  UNL1        0.0240
     21 C          60.6807   87.6525    8.3105 C.3     1  UNL1        0.1151
     22 C          61.1072   88.8041    9.1717 C.3     1  UNL1        0.0240
     23 S          59.9256   88.5964    7.4224 S.O2    1  UNL1        0.0054
     24 O          60.4764   89.7605    8.1913 O.2     1  UNL1       -0.1687
     25 O          59.3747   87.4322    6.6534 O.2     1  UNL1       -0.1687
     26 C          59.1704   89.5403    6.5342 C.ar    1  UNL1        0.1055
     27 C          57.6714   89.5734    6.5772 C.ar    1  UNL1        0.0183
     28 C          56.9163   90.5173    5.6891 C.ar    1  UNL1        0.0013
     29 C          57.6602   91.4281    4.7578 C.ar    1  UNL1        0.0039
     30 C          59.1592   91.3949    4.7148 C.ar    1  UNL1        0.0727
     31 C          59.9143   90.4511    5.6030 C.ar    1  UNL1        0.0222
     32 C          59.9031   92.3057    3.7836 C.3     1  UNL1        0.4186
     33 F          60.6470   93.2165    2.8524 F       1  UNL1       -0.1659
     34 F          61.1984   91.9011    4.4227 F       1  UNL1       -0.1659
     35 F          58.6078   92.7103    3.1445 F       1  UNL1       -0.1659
@<TRIPOS>BOND
     1    20    21    1
     2    21    22    1
     3    21     1    1
     4     1     2    1
     5     2     3    1
     6     3     4    1
     7     4     5   am
     8     5     6    2
     9     5     9    1
    10     9    10   ar
    11    10    11   ar
    12    11    12    1
    13    11    13   ar
    14    13    14   ar
    15    14    15   ar
    16    15    16    1
    17    16    17    1
    18    16    18    2
    19    16    19    2
    20     4     7    1
    21     7     8    1
    22    21    23    1
    23    23    24    2
    24    23    25    2
    25    23    26    1
    26    26    27   ar
    27    27    28   ar
    28    28    29   ar
    29    29    30   ar
    30    30    32    1
    31    32    33    1
    32    32    34    1
    33    32    35    1
    34    30    31   ar
    35     8     1    1
    36    31    26   ar
    37    15     9   ar
@<TRIPOS>MOLECULE
*****
 35 37 0 0 0
SMALL
GASTEIGER

@<TRIPOS>ATOM
      1 C          63.5551   86.5003   14.2298 C.3     1  UNL1        0.0241
      2 C          63.8077   87.2852   12.9767 C.3     1  UNL1        0.0232
      3 C          64.1535   88.7423   13.0614 C.3     1  UNL1        0.0938
      4 N          64.2467   89.4145   14.3991 N.am    1  UNL1       -0.2760
      5 C          64.5926   90.8717   14.4838 C.2     1  UNL1        0.2503
      6 O          64.6857   91.5439   15.8215 O.2     1  UNL1       -0.2699
      7 C          63.9941   88.6296   15.6521 C.3     1  UNL1        0.0938
      8 C          63.6483   87.1725   15.5675 C.3     1  UNL1        0.0232
      9 C          64.8452   91.6566   13.2308 C.ar    1  UNL1        0.0729
     10 C          63.9409   91.4892   12.0458 C.ar    1  UNL1        0.0354
     11 C          64.1936   92.2741   10.7927 C.ar    1  UNL1        0.1404
     12 F          63.2893   92.1068    9.6077 F       1  UNL1       -0.2042
     13 C          65.3505   93.2264   10.7247 C.ar    1  UNL1        0.0310
     14 C          66.2548   93.3938   11.9097 C.ar    1  UNL1        0.0208
     15 C          66.0022   92.6089   13.1627 C.ar    1  UNL1        0.1102
     16 S          66.9064   92.7763   14.3477 S.O2    1  UNL1        0.0106
     17 C          67.8107   92.9437   15.5327 C.3     1  UNL1        0.1816
     18 O          66.2132   94.0603   14.6953 O.2     1  UNL1       -0.1686
     19 O          67.5996   91.4923   14.0001 O.2     1  UNL1       -0.1686
     20 C          63.2957   84.9359   15.6387 C.3     1  UNL1        0.0240
     21 C          63.2092   85.0431   14.1451 C.3     1  UNL1        0.1151
     22 C          63.1228   85.1503   12.6515 C.3     1  UNL1        0.0240
     23 S          62.8634   83.5860   14.0605 S.O2    1  UNL1        0.0054
     24 O          62.4966   83.7569   12.6162 O.2     1  UNL1       -0.1687
     25 O          63.2303   83.4151   15.5049 O.2     1  UNL1       -0.1687
     26 C          62.5176   82.1288   13.9760 C.ar    1  UNL1        0.1055
     27 C          63.5857   81.1210   13.6705 C.ar    1  UNL1        0.0183
     28 C          63.2399   79.6639   13.5860 C.ar    1  UNL1        0.0013
     29 C          61.8259   79.2146   13.8069 C.ar    1  UNL1        0.0039
     30 C          60.7578   80.2224   14.1124 C.ar    1  UNL1        0.0727
     31 C          61.1036   81.6795   14.1969 C.ar    1  UNL1        0.0222
     32 C          59.3438   79.7731   14.3333 C.3     1  UNL1        0.4186
     33 F          57.9298   79.3239   14.5543 F       1  UNL1       -0.1659
     34 F          58.8851   81.2009   14.3013 F       1  UNL1       -0.1659
     35 F          59.8025   78.3453   14.3654 F       1  UNL1       -0.1659
@<TRIPOS>BOND
     1    20    21    1
     2    21    22    1
     3    21     1    1
     4     1     2    1
     5     2     3    1
     6     3     4    1
     7     4     5   am
     8     5     6    2
     9     5     9    1
    10     9    10   ar
    11    10    11   ar
    12    11    12    1
    13    11    13   ar
    14    13    14   ar
    15    14    15   ar
    16    15    16    1
    17    16    17    1
    18    16    18    2
    19    16    19    2
    20     4     7    1
    21     7     8    1
    22    21    23    1
    23    23    24    2
    24    23    25    2
    25    23    26    1
    26    26    27   ar
    27    27    28   ar
    28    28    29   ar
    29    29    30   ar
    30    30    32    1
    31    32    33    1
    32    32    34    1
    33    32    35    1
    34    30    31   ar
    35     8     1    1
    36    31    26   ar
    37    15     9   ar
