@<TRIPOS>MOLECULE
*****
 24 26 0 0 0
SMALL
GASTEIGER

@<TRIPOS>ATOM
      1 N          63.8697   86.8924   13.1852 N.am    1  UNL1       -0.2804
      2 C          63.9099   88.0042   14.1913 C.2     1  UNL1        0.2495
      3 O          63.5114   87.7433   15.6137 O.2     1  UNL1       -0.2698
      4 H          64.1312   87.0637   12.2516 H       1  UNL1        0.1552
      5 C          62.5539   82.7743   14.4340 C.ar    1  UNL1        0.1386
      6 C          63.1218   83.7204   15.4499 C.ar    1  UNL1        0.0382
      7 C          63.5604   85.0931   15.0336 C.ar    1  UNL1        0.0178
      8 C          63.4311   85.5197   13.6014 C.ar    1  UNL1        0.0507
      9 C          62.8632   84.5735   12.5855 C.ar    1  UNL1        0.0178
     10 C          62.4246   83.2008   13.0018 C.ar    1  UNL1        0.0382
     11 O          62.1153   81.4015   14.8502 O.3     1  UNL1       -0.4755
     12 C          59.8299   80.3484   14.2039 C.3     1  UNL1        0.0512
     13 C          61.2870   80.5648   13.9209 C.3     1  UNL1        0.2055
     14 C          64.3485   89.3769   13.7750 C.ar    1  UNL1        0.0538
     15 C          63.7566   90.0151   12.5533 C.ar    1  UNL1        0.0061
     16 C          64.1952   91.3878   12.1370 C.ar    1  UNL1        0.0194
     17 C          65.2257   92.1224   12.9425 C.ar    1  UNL1        0.0863
     18 C          65.8175   91.4842   14.1641 C.ar    1  UNL1        0.0194
     19 C          65.3789   90.1115   14.5804 C.ar    1  UNL1        0.0061
     20 N          65.6642   93.4951   12.5262 N.ar    1  UNL1       -0.1886
     21 C          65.7307   94.0106   11.1192 C.ar    1  UNL1        0.2258
     22 N          66.2209   95.4275   11.1673 N.ar    1  UNL1       -0.1045
     23 N          66.4574   95.7876   12.6041 N.ar    1  UNL1       -0.0222
     24 N          66.1134   94.5933   13.4440 N.ar    1  UNL1       -0.0385
@<TRIPOS>BOND
     1    12    13    1
     2    13    11    1
     3    11     5    1
     4     5     6   ar
     5     6     7   ar
     6     7     8   ar
     7     8     1    1
     8     1     2   am
     9     2     3    2
    10     2    14    1
    11    14    15   ar
    12    15    16   ar
    13    16    17   ar
    14    17    20    1
    15    20    21   ar
    16    21    22   ar
    17    22    23   ar
    18    23    24   ar
    19    17    18   ar
    20    18    19   ar
    21     8     9   ar
    22     9    10   ar
    23    10     5   ar
    24    19    14   ar
    25    24    20   ar
    26     1     4    1
@<TRIPOS>MOLECULE
*****
 24 26 0 0 0
SMALL
GASTEIGER

@<TRIPOS>ATOM
      1 N          63.9567   87.1306   13.1580 N.am    1  UNL1       -0.2804
      2 C          63.9486   88.2759   14.1267 C.2     1  UNL1        0.2495
      3 O          63.5054   88.0571   15.5430 O.2     1  UNL1       -0.2698
      4 H          64.2476   87.2742   12.2285 H       1  UNL1        0.1552
      5 C          62.6515   83.0387   14.5006 C.ar    1  UNL1        0.1386
      6 C          62.3699   83.4935   13.0993 C.ar    1  UNL1        0.0382
      7 C          62.8050   84.8575   12.6517 C.ar    1  UNL1        0.0178
      8 C          63.5216   85.7667   13.6055 C.ar    1  UNL1        0.0507
      9 C          63.8033   85.3118   15.0068 C.ar    1  UNL1        0.0178
     10 C          63.3682   83.9478   15.4544 C.ar    1  UNL1        0.0382
     11 O          62.2165   81.6747   14.9481 O.3     1  UNL1       -0.4755
     12 C          62.4119   79.9287   13.0342 C.3     1  UNL1        0.0512
     13 C          61.5672   80.7373   13.9737 C.3     1  UNL1        0.2055
     14 C          64.3836   89.6398   13.6791 C.ar    1  UNL1        0.0538
     15 C          65.3948   90.4050   14.4804 C.ar    1  UNL1        0.0061
     16 C          65.8299   91.7690   14.0329 C.ar    1  UNL1        0.0194
     17 C          65.2537   92.3678   12.7840 C.ar    1  UNL1        0.0863
     18 C          64.2426   91.6026   11.9828 C.ar    1  UNL1        0.0194
     19 C          63.8076   90.2386   12.4303 C.ar    1  UNL1        0.0061
     20 N          65.6888   93.7318   12.3365 N.ar    1  UNL1       -0.1886
     21 C          65.7681   94.2104   10.9171 C.ar    1  UNL1        0.2258
     22 N          66.2492   95.6311   10.9331 N.ar    1  UNL1       -0.1045
     23 N          66.4673   96.0305   12.3624 N.ar    1  UNL1       -0.0222
     24 N          66.1210   94.8567   13.2298 N.ar    1  UNL1       -0.0385
@<TRIPOS>BOND
     1    12    13    1
     2    13    11    1
     3    11     5    1
     4     5     6   ar
     5     6     7   ar
     6     7     8   ar
     7     8     1    1
     8     1     2   am
     9     2     3    2
    10     2    14    1
    11    14    15   ar
    12    15    16   ar
    13    16    17   ar
    14    17    20    1
    15    20    21   ar
    16    21    22   ar
    17    22    23   ar
    18    23    24   ar
    19    17    18   ar
    20    18    19   ar
    21     8     9   ar
    22     9    10   ar
    23    10     5   ar
    24    19    14   ar
    25    24    20   ar
    26     1     4    1
@<TRIPOS>MOLECULE
*****
 24 26 0 0 0
SMALL
GASTEIGER

@<TRIPOS>ATOM
      1 N          62.1262   85.5866    9.5175 N.am    1  UNL1       -0.2804
      2 C          61.1486   86.6236    9.9853 C.2     1  UNL1        0.2495
      3 O          60.7837   86.7093   11.4378 O.2     1  UNL1       -0.2698
      4 H          62.3656   85.5304    8.5642 H       1  UNL1        0.1552
      5 C          63.9645   82.7325   12.4713 C.ar    1  UNL1        0.1386
      6 C          63.0453   83.8174   12.9490 C.ar    1  UNL1        0.0382
      7 C          62.4326   84.7688   11.9644 C.ar    1  UNL1        0.0178
      8 C          62.7389   84.6352   10.5021 C.ar    1  UNL1        0.0507
      9 C          63.6581   83.5504   10.0245 C.ar    1  UNL1        0.0178
     10 C          64.2708   82.5990   11.0091 C.ar    1  UNL1        0.0382
     11 O          64.5772   81.7812   13.4559 O.3     1  UNL1       -0.4755
     12 C          62.4920   80.2383   13.3107 C.3     1  UNL1        0.0512
     13 C          63.7770   80.6259   13.9803 C.3     1  UNL1        0.2055
     14 C          60.5358   87.5749    9.0007 C.ar    1  UNL1        0.0538
     15 C          60.7400   89.0526    9.1587 C.ar    1  UNL1        0.0061
     16 C          60.1273   90.0039    8.1741 C.ar    1  UNL1        0.0194
     17 C          59.3103   89.4776    7.0315 C.ar    1  UNL1        0.0863
     18 C          59.1061   88.0001    6.8735 C.ar    1  UNL1        0.0194
     19 C          59.7188   87.0487    7.8581 C.ar    1  UNL1        0.0061
     20 N          58.6975   90.4290    6.0469 N.ar    1  UNL1       -0.1886
     21 C          59.4447   91.3486    5.1272 C.ar    1  UNL1        0.2258
     22 N          58.4390   92.1157    4.3210 N.ar    1  UNL1       -0.1045
     23 N          57.0701   91.6702    4.7424 N.ar    1  UNL1       -0.0222
     24 N          57.2298   90.6277    5.8091 N.ar    1  UNL1       -0.0385
@<TRIPOS>BOND
     1    12    13    1
     2    13    11    1
     3    11     5    1
     4     5     6   ar
     5     6     7   ar
     6     7     8   ar
     7     8     1    1
     8     1     2   am
     9     2     3    2
    10     2    14    1
    11    14    15   ar
    12    15    16   ar
    13    16    17   ar
    14    17    20    1
    15    20    21   ar
    16    21    22   ar
    17    22    23   ar
    18    23    24   ar
    19    17    18   ar
    20    18    19   ar
    21     8     9   ar
    22     9    10   ar
    23    10     5   ar
    24    19    14   ar
    25    24    20   ar
    26     1     4    1
@<TRIPOS>MOLECULE
*****
 24 26 0 0 0
SMALL
GASTEIGER

@<TRIPOS>ATOM
      1 N          65.5537   91.8992   11.6986 N.am    1  UNL1       -0.2804
      2 C          65.3875   92.0393   13.1827 C.2     1  UNL1        0.2495
      3 O          65.7840   93.3152   13.8647 O.2     1  UNL1       -0.2698
      4 H          65.2935   91.0618   11.2510 H       1  UNL1        0.1552
      5 C          67.2415   95.3063    9.2918 C.ar    1  UNL1        0.1386
      6 C          66.0286   95.5212   10.1477 C.ar    1  UNL1        0.0382
      7 C          65.4660   94.3855   10.9499 C.ar    1  UNL1        0.0178
      8 C          66.1163   93.0349   10.8963 C.ar    1  UNL1        0.0507
      9 C          67.3292   92.8200   10.0405 C.ar    1  UNL1        0.0178
     10 C          67.8919   93.9557    9.2382 C.ar    1  UNL1        0.0382
     11 O          67.8042   96.4420    8.4896 O.3     1  UNL1       -0.4755
     12 C          65.6471   96.8454    7.0988 C.3     1  UNL1        0.0512
     13 C          67.1431   96.8548    7.2080 C.3     1  UNL1        0.2055
     14 C          64.8249   90.9036   13.9850 C.ar    1  UNL1        0.0538
     15 C          64.5880   89.5720   13.3361 C.ar    1  UNL1        0.0061
     16 C          64.0254   88.4363   14.1384 C.ar    1  UNL1        0.0194
     17 C          63.6997   88.6321   15.5895 C.ar    1  UNL1        0.0863
     18 C          63.9366   89.9636   16.2382 C.ar    1  UNL1        0.0194
     19 C          64.4992   91.0993   15.4360 C.ar    1  UNL1        0.0061
     20 N          63.1370   87.4964   16.3917 N.ar    1  UNL1       -0.1886
     21 C          62.6208   87.5807   17.7975 C.ar    1  UNL1        0.2258
     22 N          62.1565   86.2134   18.2037 N.ar    1  UNL1       -0.1045
     23 N          62.3859   85.2840   17.0489 N.ar    1  UNL1       -0.0222
     24 N          62.9919   86.0769   15.9290 N.ar    1  UNL1       -0.0385
@<TRIPOS>BOND
     1    12    13    1
     2    13    11    1
     3    11     5    1
     4     5     6   ar
     5     6     7   ar
     6     7     8   ar
     7     8     1    1
     8     1     2   am
     9     2     3    2
    10     2    14    1
    11    14    15   ar
    12    15    16   ar
    13    16    17   ar
    14    17    20    1
    15    20    21   ar
    16    21    22   ar
    17    22    23   ar
    18    23    24   ar
    19    17    18   ar
    20    18    19   ar
    21     8     9   ar
    22     9    10   ar
    23    10     5   ar
    24    19    14   ar
    25    24    20   ar
    26     1     4    1
@<TRIPOS>MOLECULE
*****
 24 26 0 0 0
SMALL
GASTEIGER

@<TRIPOS>ATOM
      1 N          64.8324   91.0713   12.2743 N.am    1  UNL1       -0.2804
      2 C          63.5733   90.3840   12.7126 C.2     1  UNL1        0.2495
      3 O          63.1159   90.4936   14.1370 O.2     1  UNL1       -0.2698
      4 H          65.1326   90.9994   11.3394 H       1  UNL1        0.1552
      5 C          67.2377   93.4620   15.2322 C.ar    1  UNL1        0.1386
      6 C          66.8405   92.0518   15.5539 C.ar    1  UNL1        0.0382
      7 C          66.0387   91.2549   14.5680 C.ar    1  UNL1        0.0178
      8 C          65.6342   91.8682   13.2602 C.ar    1  UNL1        0.0507
      9 C          66.0315   93.2783   12.9385 C.ar    1  UNL1        0.0178
     10 C          66.8332   94.0752   13.9244 C.ar    1  UNL1        0.0382
     11 O          68.0395   94.2588   16.2182 O.3     1  UNL1       -0.4755
     12 C          70.2387   93.2118   15.3142 C.3     1  UNL1        0.0512
     13 C          69.5382   94.2312   16.1628 C.3     1  UNL1        0.2055
     14 C          62.7715   89.5872   11.7266 C.ar    1  UNL1        0.0538
     15 C          62.7591   88.0893   11.8063 C.ar    1  UNL1        0.0061
     16 C          61.9574   87.2924   10.8204 C.ar    1  UNL1        0.0194
     17 C          61.1680   87.9934    9.7547 C.ar    1  UNL1        0.0863
     18 C          61.1804   89.4912    9.6750 C.ar    1  UNL1        0.0194
     19 C          61.9822   90.2881   10.6610 C.ar    1  UNL1        0.0061
     20 N          60.3662   87.1965    8.7687 N.ar    1  UNL1       -0.1886
     21 C          60.8894   86.1021    7.8864 C.ar    1  UNL1        0.2258
     22 N          59.7471   85.5833    7.0643 N.ar    1  UNL1       -0.1045
     23 N          58.5178   86.3571    7.4385 N.ar    1  UNL1       -0.0222
     24 N          58.9004   87.3542    8.4919 N.ar    1  UNL1       -0.0385
@<TRIPOS>BOND
     1    12    13    1
     2    13    11    1
     3    11     5    1
     4     5     6   ar
     5     6     7   ar
     6     7     8   ar
     7     8     1    1
     8     1     2   am
     9     2     3    2
    10     2    14    1
    11    14    15   ar
    12    15    16   ar
    13    16    17   ar
    14    17    20    1
    15    20    21   ar
    16    21    22   ar
    17    22    23   ar
    18    23    24   ar
    19    17    18   ar
    20    18    19   ar
    21     8     9   ar
    22     9    10   ar
    23    10     5   ar
    24    19    14   ar
    25    24    20   ar
    26     1     4    1
@<TRIPOS>MOLECULE
*****
 24 26 0 0 0
SMALL
GASTEIGER

@<TRIPOS>ATOM
      1 N          63.8173   86.6149   13.6359 N.am    1  UNL1       -0.2804
      2 C          63.1968   87.6307   12.7232 C.2     1  UNL1        0.2495
      3 O          62.0087   87.2601   11.8859 O.2     1  UNL1       -0.2698
      4 H          64.5971   86.8581   14.1854 H       1  UNL1        0.1552
      5 C          62.1146   82.4556   13.8621 C.ar    1  UNL1        0.1386
      6 C          62.3994   83.0779   12.5273 C.ar    1  UNL1        0.0382
      7 C          62.9669   84.4643   12.4519 C.ar    1  UNL1        0.0178
      8 C          63.2498   85.2285   13.7113 C.ar    1  UNL1        0.0507
      9 C          62.9650   84.6062   15.0460 C.ar    1  UNL1        0.0178
     10 C          62.3975   83.2198   15.1215 C.ar    1  UNL1        0.0382
     11 O          61.5471   81.0692   13.9375 O.3     1  UNL1       -0.4755
     12 C          62.5558   79.6002   12.0469 C.3     1  UNL1        0.0512
     13 C          62.3753   79.8953   13.5065 C.3     1  UNL1        0.2055
     14 C          63.7644   89.0171   12.6478 C.ar    1  UNL1        0.0538
     15 C          64.6345   89.5326   13.7556 C.ar    1  UNL1        0.0061
     16 C          65.2021   90.9191   13.6802 C.ar    1  UNL1        0.0194
     17 C          64.8995   91.7900   12.4970 C.ar    1  UNL1        0.0863
     18 C          64.0294   91.2745   11.3892 C.ar    1  UNL1        0.0194
     19 C          63.4618   89.8881   11.4646 C.ar    1  UNL1        0.0061
     20 N          65.4671   93.1764   12.4216 N.ar    1  UNL1       -0.1886
     21 C          66.2094   93.8860   13.5150 C.ar    1  UNL1        0.2258
     22 N          66.5931   95.2448   13.0087 N.ar    1  UNL1       -0.1045
     23 N          66.0879   95.3751   11.6024 N.ar    1  UNL1       -0.0222
     24 N          65.3919   94.0968   11.2394 N.ar    1  UNL1       -0.0385
@<TRIPOS>BOND
     1    12    13    1
     2    13    11    1
     3    11     5    1
     4     5     6   ar
     5     6     7   ar
     6     7     8   ar
     7     8     1    1
     8     1     2   am
     9     2     3    2
    10     2    14    1
    11    14    15   ar
    12    15    16   ar
    13    16    17   ar
    14    17    20    1
    15    20    21   ar
    16    21    22   ar
    17    22    23   ar
    18    23    24   ar
    19    17    18   ar
    20    18    19   ar
    21     8     9   ar
    22     9    10   ar
    23    10     5   ar
    24    19    14   ar
    25    24    20   ar
    26     1     4    1
@<TRIPOS>MOLECULE
*****
 24 26 0 0 0
SMALL
GASTEIGER

@<TRIPOS>ATOM
      1 N          71.9923   75.7271   13.7732 N.am    1  UNL1       -0.2804
      2 C          72.2102   77.1738   14.1042 C.2     1  UNL1        0.2495
      3 O          72.3030   77.6097   15.5366 O.2     1  UNL1       -0.2698
      4 H          71.9314   75.4411   12.8331 H       1  UNL1        0.1552
      5 C          71.6173   72.6946   17.0767 C.ar    1  UNL1        0.1386
      6 C          72.9587   72.9796   16.4689 C.ar    1  UNL1        0.0382
      7 C          73.0837   73.9904   15.3677 C.ar    1  UNL1        0.0178
      8 C          71.8673   74.7163   14.8743 C.ar    1  UNL1        0.0507
      9 C          70.5259   74.4313   15.4821 C.ar    1  UNL1        0.0178
     10 C          70.4009   73.4205   16.5832 C.ar    1  UNL1        0.0382
     11 O          71.4923   71.6838   18.1778 O.3     1  UNL1       -0.4755
     12 C          71.9992   73.1533   20.2595 C.3     1  UNL1        0.0512
     13 C          71.1493   72.1284   19.5687 C.3     1  UNL1        0.2055
     14 C          72.3352   78.1846   13.0031 C.ar    1  UNL1        0.0538
     15 C          72.2450   77.7484   11.5707 C.ar    1  UNL1        0.0061
     16 C          72.3700   78.7592   10.4695 C.ar    1  UNL1        0.0194
     17 C          72.5852   80.2063   10.8007 C.ar    1  UNL1        0.0863
     18 C          72.6754   80.6425   12.2330 C.ar    1  UNL1        0.0194
     19 C          72.5504   79.6317   13.3342 C.ar    1  UNL1        0.0061
     20 N          72.7102   81.2172    9.6996 N.ar    1  UNL1       -0.1886
     21 C          73.4086   81.0106    8.3882 C.ar    1  UNL1        0.2258
     22 N          73.2888   82.2778    7.5946 N.ar    1  UNL1       -0.1045
     23 N          72.5164   83.2676    8.4154 N.ar    1  UNL1       -0.0222
     24 N          72.1588   82.6121    9.7164 N.ar    1  UNL1       -0.0385
@<TRIPOS>BOND
     1    12    13    1
     2    13    11    1
     3    11     5    1
     4     5     6   ar
     5     6     7   ar
     6     7     8   ar
     7     8     1    1
     8     1     2   am
     9     2     3    2
    10     2    14    1
    11    14    15   ar
    12    15    16   ar
    13    16    17   ar
    14    17    20    1
    15    20    21   ar
    16    21    22   ar
    17    22    23   ar
    18    23    24   ar
    19    17    18   ar
    20    18    19   ar
    21     8     9   ar
    22     9    10   ar
    23    10     5   ar
    24    19    14   ar
    25    24    20   ar
    26     1     4    1
@<TRIPOS>MOLECULE
*****
 24 26 0 0 0
SMALL
GASTEIGER

@<TRIPOS>ATOM
      1 N          62.5214   87.8578   10.0503 N.am    1  UNL1       -0.2804
      2 C          62.7262   87.4378   11.4756 C.2     1  UNL1        0.2495
      3 O          62.4558   86.0206   11.8862 O.2     1  UNL1       -0.2698
      4 H          62.6990   88.7879    9.7808 H       1  UNL1        0.1552
      5 C          61.0956   84.8664    7.0059 C.ar    1  UNL1        0.1386
      6 C          60.1620   85.9269    7.5096 C.ar    1  UNL1        0.0382
      7 C          60.6373   86.9240    8.5244 C.ar    1  UNL1        0.0178
      8 C          62.0461   86.8606    9.0355 C.ar    1  UNL1        0.0507
      9 C          62.9796   85.8001    8.5317 C.ar    1  UNL1        0.0178
     10 C          62.5044   84.8030    7.5169 C.ar    1  UNL1        0.0382
     11 O          60.6203   83.8693    5.9911 O.3     1  UNL1       -0.4755
     12 C          62.5102   84.4264    4.2976 C.3     1  UNL1        0.0512
     13 C          61.1188   83.9413    4.5782 C.3     1  UNL1        0.2055
     14 C          63.2015   88.4349   12.4904 C.ar    1  UNL1        0.0538
     15 C          62.9907   89.9016   12.2567 C.ar    1  UNL1        0.0061
     16 C          63.4660   90.8987   13.2715 C.ar    1  UNL1        0.0194
     17 C          64.1521   90.4292   14.5201 C.ar    1  UNL1        0.0863
     18 C          64.3629   88.9626   14.7538 C.ar    1  UNL1        0.0194
     19 C          63.8876   87.9655   13.7389 C.ar    1  UNL1        0.0061
     20 N          64.6274   91.4263   15.5349 N.ar    1  UNL1       -0.1886
     21 C          65.9978   92.0327   15.6005 C.ar    1  UNL1        0.2258
     22 N          66.0331   92.9733   16.7684 N.ar    1  UNL1       -0.1045
     23 N          64.6845   92.9482   17.4246 N.ar    1  UNL1       -0.0222
     24 N          63.8157   91.9922   16.6623 N.ar    1  UNL1       -0.0385
@<TRIPOS>BOND
     1    12    13    1
     2    13    11    1
     3    11     5    1
     4     5     6   ar
     5     6     7   ar
     6     7     8   ar
     7     8     1    1
     8     1     2   am
     9     2     3    2
    10     2    14    1
    11    14    15   ar
    12    15    16   ar
    13    16    17   ar
    14    17    20    1
    15    20    21   ar
    16    21    22   ar
    17    22    23   ar
    18    23    24   ar
    19    17    18   ar
    20    18    19   ar
    21     8     9   ar
    22     9    10   ar
    23    10     5   ar
    24    19    14   ar
    25    24    20   ar
    26     1     4    1
@<TRIPOS>MOLECULE
*****
 24 26 0 0 0
SMALL
GASTEIGER

@<TRIPOS>ATOM
      1 N          65.4839   90.4283   13.0641 N.am    1  UNL1       -0.2804
      2 C          64.0971   89.8587   13.1113 C.2     1  UNL1        0.2495
      3 O          62.9110   90.7548   12.9103 O.2     1  UNL1       -0.2698
      4 H          66.2624   89.8402   13.1961 H       1  UNL1        0.1552
      5 C          66.0865   94.8252   12.3195 C.ar    1  UNL1        0.1386
      6 C          66.4005   94.2425   13.6656 C.ar    1  UNL1        0.0382
      7 C          66.1996   92.7769   13.9138 C.ar    1  UNL1        0.0178
      8 C          65.6848   91.8939   12.8159 C.ar    1  UNL1        0.0507
      9 C          65.3708   92.4766   11.4699 C.ar    1  UNL1        0.0178
     10 C          65.5716   93.9422   11.2217 C.ar    1  UNL1        0.0382
     11 O          66.2873   96.2908   12.0713 O.3     1  UNL1       -0.4755
     12 C          67.1796   96.8252    9.6905 C.3     1  UNL1        0.0512
     13 C          66.0696   96.8558   10.6990 C.3     1  UNL1        0.2055
     14 C          63.8963   88.3931   13.3595 C.ar    1  UNL1        0.0538
     15 C          64.3993   87.7715   14.6287 C.ar    1  UNL1        0.0061
     16 C          64.1984   86.3059   14.8769 C.ar    1  UNL1        0.0194
     17 C          63.4946   85.4619   13.8559 C.ar    1  UNL1        0.0863
     18 C          62.9916   86.0835   12.5869 C.ar    1  UNL1        0.0194
     19 C          63.1924   87.5491   12.3387 C.ar    1  UNL1        0.0061
     20 N          63.2937   83.9962   14.1041 N.ar    1  UNL1       -0.1886
     21 C          62.1926   83.3824   14.9170 C.ar    1  UNL1        0.2258
     22 N          62.3771   81.8939   14.8983 N.ar    1  UNL1       -0.1045
     23 N          63.5922   81.5878   14.0738 N.ar    1  UNL1       -0.0222
     24 N          64.1588   82.8871   13.5830 N.ar    1  UNL1       -0.0385
@<TRIPOS>BOND
     1    12    13    1
     2    13    11    1
     3    11     5    1
     4     5     6   ar
     5     6     7   ar
     6     7     8   ar
     7     8     1    1
     8     1     2   am
     9     2     3    2
    10     2    14    1
    11    14    15   ar
    12    15    16   ar
    13    16    17   ar
    14    17    20    1
    15    20    21   ar
    16    21    22   ar
    17    22    23   ar
    18    23    24   ar
    19    17    18   ar
    20    18    19   ar
    21     8     9   ar
    22     9    10   ar
    23    10     5   ar
    24    19    14   ar
    25    24    20   ar
    26     1     4    1
