@<TRIPOS>MOLECULE
*****
 46 49 0 0 0
SMALL
GASTEIGER

@<TRIPOS>ATOM
      1 C          60.2945   88.9908    9.0414 C.2     1  UNL1        0.2491
      2 O          60.0988   90.3713    9.5946 O.2     1  UNL1       -0.2727
      3 N          59.5814   88.5770    7.7882 N.am    1  UNL1       -0.2724
      4 C          61.2032   88.0242    9.7413 C.3     1  UNL1        0.1934
      5 C          63.4322   90.4207   11.9859 C.ar    1  UNL1        0.0529
      6 C          62.5304   89.9413   10.8874 C.ar    1  UNL1        0.0782
      7 N          62.1050   88.5036   10.8399 N.ar    1  UNL1       -0.2979
      8 C          62.5815   87.5454   11.8909 C.ar    1  UNL1        0.1750
      9 N          63.4833   88.0249   12.9895 N.ar    1  UNL1       -0.1847
     10 C          63.9087   89.4625   13.0369 C.ar    1  UNL1        0.2783
     11 O          64.8106   89.9419   14.1355 O.2     1  UNL1       -0.2654
     12 C          64.9536   92.3464   11.1330 C.3     1  UNL1        0.0052
     13 C          63.8576   91.8584   12.0333 C.3     1  UNL1        0.0328
     14 S          62.1562   86.1078   11.8435 S.3     1  UNL1       -0.0724
     15 C          63.1864   85.0188   11.8937 C.3     1  UNL1        0.0913
     16 C          62.8183   83.6615   12.4156 C.ar    1  UNL1       -0.0108
     17 C          62.9057   82.4635   11.5172 C.ar    1  UNL1       -0.0011
     18 C          62.5376   81.1062   12.0391 C.ar    1  UNL1        0.0293
     19 C          62.0821   80.9471   13.4594 C.ar    1  UNL1        0.1401
     20 F          61.7140   79.5898   13.9813 F       1  UNL1       -0.2042
     21 C          61.9947   82.1451   14.3578 C.ar    1  UNL1        0.0293
     22 C          62.3628   83.5023   13.8358 C.ar    1  UNL1       -0.0011
     23 C          59.7771   87.1965    7.2350 C.3     1  UNL1        0.1111
     24 C          60.4427   86.1419    8.0685 C.3     1  UNL1        0.0939
     25 N          61.5561   85.3203    7.4895 N.3     1  UNL1       -0.2712
     26 C          62.9435   85.4378    8.0476 C.3     1  UNL1        0.0722
     27 C          63.5853   84.2583    8.7160 C.3     1  UNL1        0.0188
     28 C          61.2823   84.3813    6.3524 C.3     1  UNL1        0.0722
     29 C          62.2435   84.2933    5.2042 C.3     1  UNL1        0.0188
     30 C          58.6727   89.5436    7.0883 C.3     1  UNL1        0.1202
     31 C          59.1988   90.3904    5.9676 C.ar    1  UNL1       -0.0023
     32 C          60.6542   90.3393    5.6083 C.ar    1  UNL1       -0.0026
     33 C          61.1803   91.1861    4.4875 C.ar    1  UNL1       -0.0003
     34 C          60.2509   92.0841    3.7260 C.ar    1  UNL1       -0.0000
     35 C          58.7955   92.1352    4.0853 C.ar    1  UNL1       -0.0003
     36 C          58.2694   91.2884    5.2060 C.ar    1  UNL1       -0.0026
     37 C          60.7770   92.9309    2.6053 C.ar    1  UNL1       -0.0000
     38 C          59.8559   93.8593    1.8706 C.ar    1  UNL1       -0.0001
     39 C          60.3821   94.7062    0.7498 C.ar    1  UNL1        0.0039
     40 C          61.8292   94.6246    0.3638 C.ar    1  UNL1        0.0714
     41 C          62.7503   93.6962    1.0984 C.ar    1  UNL1        0.0039
     42 C          62.2242   92.8494    2.2192 C.ar    1  UNL1       -0.0001
     43 C          62.3554   95.4714   -0.7570 C.3     1  UNL1        0.4186
     44 F          62.8815   96.3182   -1.8777 F       1  UNL1       -0.1659
     45 F          61.5341   96.6277   -0.2688 F       1  UNL1       -0.1659
     46 F          63.1766   94.3151   -1.2453 F       1  UNL1       -0.1659
@<TRIPOS>BOND
     1    12    13    1
     2    13     5    1
     3     5     6   ar
     4     6     7   ar
     5     7     4    1
     6     4     1    1
     7     1     2    2
     8     1     3   am
     9     3    23    1
    10    23    24    1
    11    24    25    1
    12    25    26    1
    13    26    27    1
    14    25    28    1
    15    28    29    1
    16     3    30    1
    17    30    31    1
    18    31    32   ar
    19    32    33   ar
    20    33    34   ar
    21    34    37    1
    22    37    38   ar
    23    38    39   ar
    24    39    40   ar
    25    40    43    1
    26    43    44    1
    27    43    45    1
    28    43    46    1
    29    40    41   ar
    30    41    42   ar
    31    34    35   ar
    32    35    36   ar
    33     7     8   ar
    34     8    14    1
    35    14    15    1
    36    15    16    1
    37    16    17   ar
    38    17    18   ar
    39    18    19   ar
    40    19    20    1
    41    19    21   ar
    42    21    22   ar
    43     8     9   ar
    44     9    10   ar
    45    10    11    2
    46    10     5   ar
    47    36    31   ar
    48    22    16   ar
    49    42    37   ar
@<TRIPOS>MOLECULE
*****
 46 49 0 0 0
SMALL
GASTEIGER

@<TRIPOS>ATOM
      1 C          62.0407   85.2755    9.9728 C.2     1  UNL1        0.2491
      2 O          61.5601   84.6385    8.7027 O.2     1  UNL1       -0.2727
      3 N          61.2194   86.3422   10.6344 N.am    1  UNL1       -0.2724
      4 C          63.3427   84.8458   10.5814 C.3     1  UNL1        0.1934
      5 C          63.0876   81.0864   11.8271 C.ar    1  UNL1        0.0529
      6 C          63.0386   82.2896   10.9328 C.ar    1  UNL1        0.0782
      7 N          63.3916   83.6426   11.4758 N.ar    1  UNL1       -0.2979
      8 C          63.7937   83.7924   12.9131 C.ar    1  UNL1        0.1750
      9 N          63.8426   82.5891   13.8074 N.ar    1  UNL1       -0.1847
     10 C          63.4896   81.2362   13.2644 C.ar    1  UNL1        0.2783
     11 O          63.5386   80.0329   14.1588 O.2     1  UNL1       -0.2654
     12 C          62.7962   79.4786    9.8073 C.3     1  UNL1        0.0052
     13 C          62.7345   79.7335   11.2841 C.3     1  UNL1        0.0328
     14 S          64.1467   85.1453   13.4561 S.3     1  UNL1       -0.0724
     15 C          64.0544   85.4095   14.9297 C.3     1  UNL1        0.0913
     16 C          63.8655   86.8109   15.4301 C.ar    1  UNL1       -0.0108
     17 C          64.3530   87.9709   14.6135 C.ar    1  UNL1       -0.0011
     18 C          64.1641   89.3724   15.1138 C.ar    1  UNL1        0.0293
     19 C          63.4877   89.6138   16.4307 C.ar    1  UNL1        0.1401
     20 F          63.2988   91.0152   16.9311 F       1  UNL1       -0.2042
     21 C          63.0002   88.4538   17.2473 C.ar    1  UNL1        0.0293
     22 C          63.1891   87.0524   16.7469 C.ar    1  UNL1       -0.0011
     23 C          61.7000   86.9792   11.9046 C.3     1  UNL1        0.1111
     24 C          62.5799   88.1927   11.8487 C.3     1  UNL1        0.0939
     25 N          61.9872   89.5580   12.0345 N.3     1  UNL1       -0.2712
     26 C          60.5485   89.7032   12.4333 C.3     1  UNL1        0.0722
     27 C          59.6034   90.4775   11.5630 C.3     1  UNL1        0.0188
     28 C          62.8332   90.7782   11.8214 C.3     1  UNL1        0.0722
     29 C          63.1603   91.2302   10.4290 C.3     1  UNL1        0.0188
     30 C          59.9175   86.7718   10.0259 C.3     1  UNL1        0.1202
     31 C          59.9080   87.7464    8.8857 C.ar    1  UNL1       -0.0023
     32 C          59.1015   87.4536    7.6554 C.ar    1  UNL1       -0.0026
     33 C          59.0921   88.4283    6.5152 C.ar    1  UNL1       -0.0003
     34 C          59.8891   89.6958    6.6054 C.ar    1  UNL1       -0.0000
     35 C          60.6955   89.9886    7.8358 C.ar    1  UNL1       -0.0003
     36 C          60.7050   89.0140    8.9759 C.ar    1  UNL1       -0.0026
     37 C          59.8796   90.6704    5.4653 C.ar    1  UNL1       -0.0000
     38 C          61.1591   91.0145    4.7620 C.ar    1  UNL1       -0.0001
     39 C          61.1495   91.9891    3.6218 C.ar    1  UNL1        0.0039
     40 C          59.8606   92.6197    3.1849 C.ar    1  UNL1        0.0714
     41 C          58.5811   92.2756    3.8882 C.ar    1  UNL1        0.0039
     42 C          58.5906   91.3010    5.0283 C.ar    1  UNL1       -0.0001
     43 C          59.8510   93.5944    2.0447 C.3     1  UNL1        0.4186
     44 F          59.8415   94.5690    0.9046 F       1  UNL1       -0.1659
     45 F          60.1597   94.7114    2.9971 F       1  UNL1       -0.1659
     46 F          59.5424   92.4774    1.0924 F       1  UNL1       -0.1659
@<TRIPOS>BOND
     1    12    13    1
     2    13     5    1
     3     5     6   ar
     4     6     7   ar
     5     7     4    1
     6     4     1    1
     7     1     2    2
     8     1     3   am
     9     3    23    1
    10    23    24    1
    11    24    25    1
    12    25    26    1
    13    26    27    1
    14    25    28    1
    15    28    29    1
    16     3    30    1
    17    30    31    1
    18    31    32   ar
    19    32    33   ar
    20    33    34   ar
    21    34    37    1
    22    37    38   ar
    23    38    39   ar
    24    39    40   ar
    25    40    43    1
    26    43    44    1
    27    43    45    1
    28    43    46    1
    29    40    41   ar
    30    41    42   ar
    31    34    35   ar
    32    35    36   ar
    33     7     8   ar
    34     8    14    1
    35    14    15    1
    36    15    16    1
    37    16    17   ar
    38    17    18   ar
    39    18    19   ar
    40    19    20    1
    41    19    21   ar
    42    21    22   ar
    43     8     9   ar
    44     9    10   ar
    45    10    11    2
    46    10     5   ar
    47    36    31   ar
    48    22    16   ar
    49    42    37   ar
@<TRIPOS>MOLECULE
*****
 46 49 0 0 0
SMALL
GASTEIGER

@<TRIPOS>ATOM
      1 C          63.7903   90.2160   15.8915 C.2     1  UNL1        0.2491
      2 O          63.5436   90.2490   17.3707 O.2     1  UNL1       -0.2727
      3 N          63.7020   88.9178   15.1452 N.am    1  UNL1       -0.2724
      4 C          64.1254   91.4812   15.1587 C.3     1  UNL1        0.1934
      5 C          68.0257   92.1070   15.5409 C.ar    1  UNL1        0.0529
      6 C          66.5997   91.7956   15.8863 C.ar    1  UNL1        0.0782
      7 N          65.5516   91.7926   14.8133 N.ar    1  UNL1       -0.2979
      8 C          65.9295   92.1009   13.3948 C.ar    1  UNL1        0.1750
      9 N          67.3556   92.4123   13.0494 N.ar    1  UNL1       -0.1847
     10 C          68.4037   92.4153   14.1225 C.ar    1  UNL1        0.2783
     11 O          69.8298   92.7268   13.7770 O.2     1  UNL1       -0.2654
     12 C          70.0421   93.2514   16.7134 C.3     1  UNL1        0.0052
     13 C          69.0738   92.1101   16.6140 C.3     1  UNL1        0.0328
     14 S          64.8814   92.0978   12.3217 S.3     1  UNL1       -0.0724
     15 C          65.2865   92.1124   10.8776 C.3     1  UNL1        0.0913
     16 C          66.0129   93.2978   10.3143 C.ar    1  UNL1       -0.0108
     17 C          65.4745   94.6807   10.5331 C.ar    1  UNL1       -0.0011
     18 C          66.2009   95.8661    9.9699 C.ar    1  UNL1        0.0293
     19 C          67.4655   95.6685    9.1877 C.ar    1  UNL1        0.1401
     20 F          68.1919   96.8539    8.6244 F       1  UNL1       -0.2042
     21 C          68.0038   94.2857    8.9689 C.ar    1  UNL1        0.0293
     22 C          67.2775   93.1003    9.5322 C.ar    1  UNL1       -0.0011
     23 C          63.9487   88.8849   13.6660 C.3     1  UNL1        0.1111
     24 C          62.9970   89.5710   12.7314 C.3     1  UNL1        0.0939
     25 N          62.0672   88.7596   11.8788 N.3     1  UNL1       -0.2712
     26 C          62.5194   87.4439   11.3183 C.3     1  UNL1        0.0722
     27 C          61.5074   86.4112   10.9188 C.3     1  UNL1        0.0188
     28 C          60.6851   89.2640   11.5866 C.3     1  UNL1        0.0722
     29 C          60.4922   90.4331   10.6668 C.3     1  UNL1        0.0188
     30 C          63.3669   87.6527   15.8780 C.3     1  UNL1        0.1202
     31 C          63.2841   86.3537   15.1326 C.ar    1  UNL1       -0.0023
     32 C          64.0990   86.1488   13.8900 C.ar    1  UNL1       -0.0026
     33 C          64.0162   84.8496   13.1446 C.ar    1  UNL1       -0.0003
     34 C          63.1186   83.7556   13.6418 C.ar    1  UNL1       -0.0000
     35 C          62.3037   83.9605   14.8844 C.ar    1  UNL1       -0.0003
     36 C          62.3865   85.2595   15.6298 C.ar    1  UNL1       -0.0026
     37 C          63.0359   82.4566   12.8964 C.ar    1  UNL1       -0.0000
     38 C          63.3463   82.4125   11.4295 C.ar    1  UNL1       -0.0001
     39 C          63.2635   81.1133   10.6841 C.ar    1  UNL1        0.0039
     40 C          62.8704   79.8584   11.4056 C.ar    1  UNL1        0.0714
     41 C          62.5599   79.9025   12.8725 C.ar    1  UNL1        0.0039
     42 C          62.6427   81.2015   13.6179 C.ar    1  UNL1       -0.0001
     43 C          62.7876   78.5593   10.6602 C.3     1  UNL1        0.4186
     44 F          62.7049   77.2603    9.9148 F       1  UNL1       -0.1659
     45 F          63.0208   79.2856    9.3687 F       1  UNL1       -0.1659
     46 F          62.5544   77.8331   11.9517 F       1  UNL1       -0.1659
@<TRIPOS>BOND
     1    12    13    1
     2    13     5    1
     3     5     6   ar
     4     6     7   ar
     5     7     4    1
     6     4     1    1
     7     1     2    2
     8     1     3   am
     9     3    23    1
    10    23    24    1
    11    24    25    1
    12    25    26    1
    13    26    27    1
    14    25    28    1
    15    28    29    1
    16     3    30    1
    17    30    31    1
    18    31    32   ar
    19    32    33   ar
    20    33    34   ar
    21    34    37    1
    22    37    38   ar
    23    38    39   ar
    24    39    40   ar
    25    40    43    1
    26    43    44    1
    27    43    45    1
    28    43    46    1
    29    40    41   ar
    30    41    42   ar
    31    34    35   ar
    32    35    36   ar
    33     7     8   ar
    34     8    14    1
    35    14    15    1
    36    15    16    1
    37    16    17   ar
    38    17    18   ar
    39    18    19   ar
    40    19    20    1
    41    19    21   ar
    42    21    22   ar
    43     8     9   ar
    44     9    10   ar
    45    10    11    2
    46    10     5   ar
    47    36    31   ar
    48    22    16   ar
    49    42    37   ar
@<TRIPOS>MOLECULE
*****
 46 49 0 0 0
SMALL
GASTEIGER

@<TRIPOS>ATOM
      1 C          63.2694   90.4255   14.3230 C.2     1  UNL1        0.2491
      2 O          62.0724   89.6715   14.8218 O.2     1  UNL1       -0.2727
      3 N          64.6495   89.8975   14.5812 N.am    1  UNL1       -0.2724
      4 C          63.0863   91.7075   13.5661 C.3     1  UNL1        0.1934
      5 C          65.9050   93.6121   11.5222 C.ar    1  UNL1        0.0529
      6 C          64.9533   93.2487   12.6232 C.ar    1  UNL1        0.0782
      7 N          64.0379   92.0709   12.4651 N.ar    1  UNL1       -0.2979
      8 C          64.0742   91.2566   11.2059 C.ar    1  UNL1        0.1750
      9 N          65.0259   91.6200   10.1049 N.ar    1  UNL1       -0.1847
     10 C          65.9413   92.7977   10.2631 C.ar    1  UNL1        0.2783
     11 O          66.8929   93.1611    9.1620 O.2     1  UNL1       -0.2654
     12 C          66.5232   96.0725   10.9618 C.3     1  UNL1        0.0052
     13 C          66.8203   94.7898   11.6803 C.3     1  UNL1        0.0328
     14 S          63.1589   90.0788   11.0478 S.3     1  UNL1       -0.0724
     15 C          61.9291   90.1937   10.1967 C.3     1  UNL1        0.0913
     16 C          61.3872   88.9840    9.4946 C.ar    1  UNL1       -0.0108
     17 C          62.0537   87.6520    9.6728 C.ar    1  UNL1       -0.0011
     18 C          61.5118   86.4423    8.9707 C.ar    1  UNL1        0.0293
     19 C          60.3034   86.5645    8.0904 C.ar    1  UNL1        0.1401
     20 F          59.7614   85.3548    7.3884 F       1  UNL1       -0.2042
     21 C          59.6369   87.8965    7.9123 C.ar    1  UNL1        0.0293
     22 C          60.1788   89.1062    8.6144 C.ar    1  UNL1       -0.0011
     23 C          65.8464   90.6515   14.0824 C.3     1  UNL1        0.1111
     24 C          66.9473   91.0234   15.0309 C.3     1  UNL1        0.0939
     25 N          67.8721   92.1569   14.6993 N.3     1  UNL1       -0.2712
     26 C          68.9966   91.9480   13.7290 C.3     1  UNL1        0.0722
     27 C          68.7016   91.5472   12.3139 C.3     1  UNL1        0.0188
     28 C          67.6722   93.4993   15.3380 C.3     1  UNL1        0.0722
     29 C          68.8328   94.2099   15.9689 C.3     1  UNL1        0.0188
     30 C          64.8326   88.6155   15.3381 C.3     1  UNL1        0.1202
     31 C          64.5310   87.3039   14.6758 C.ar    1  UNL1       -0.0023
     32 C          63.6560   87.2623   13.4581 C.ar    1  UNL1       -0.0026
     33 C          63.3545   85.9506   12.7958 C.ar    1  UNL1       -0.0003
     34 C          63.9279   84.6806   13.3511 C.ar    1  UNL1       -0.0000
     35 C          64.8029   84.7223   14.5688 C.ar    1  UNL1       -0.0003
     36 C          65.1044   86.0339   15.2311 C.ar    1  UNL1       -0.0026
     37 C          63.6264   83.3690   12.6888 C.ar    1  UNL1       -0.0000
     38 C          63.0340   82.2449   13.4860 C.ar    1  UNL1       -0.0001
     39 C          62.7325   80.9333   12.8235 C.ar    1  UNL1        0.0039
     40 C          63.0233   80.7458   11.3640 C.ar    1  UNL1        0.0714
     41 C          63.6157   81.8699   10.5669 C.ar    1  UNL1        0.0039
     42 C          63.9172   83.1815   11.2292 C.ar    1  UNL1       -0.0001
     43 C          62.7217   79.4341   10.7016 C.3     1  UNL1        0.4186
     44 F          62.4202   78.1225   10.0393 F       1  UNL1       -0.1659
     45 F          62.4871   78.8097   12.0451 F       1  UNL1       -0.1659
     46 F          62.9564   80.0586    9.3582 F       1  UNL1       -0.1659
@<TRIPOS>BOND
     1    12    13    1
     2    13     5    1
     3     5     6   ar
     4     6     7   ar
     5     7     4    1
     6     4     1    1
     7     1     2    2
     8     1     3   am
     9     3    23    1
    10    23    24    1
    11    24    25    1
    12    25    26    1
    13    26    27    1
    14    25    28    1
    15    28    29    1
    16     3    30    1
    17    30    31    1
    18    31    32   ar
    19    32    33   ar
    20    33    34   ar
    21    34    37    1
    22    37    38   ar
    23    38    39   ar
    24    39    40   ar
    25    40    43    1
    26    43    44    1
    27    43    45    1
    28    43    46    1
    29    40    41   ar
    30    41    42   ar
    31    34    35   ar
    32    35    36   ar
    33     7     8   ar
    34     8    14    1
    35    14    15    1
    36    15    16    1
    37    16    17   ar
    38    17    18   ar
    39    18    19   ar
    40    19    20    1
    41    19    21   ar
    42    21    22   ar
    43     8     9   ar
    44     9    10   ar
    45    10    11    2
    46    10     5   ar
    47    36    31   ar
    48    22    16   ar
    49    42    37   ar
@<TRIPOS>MOLECULE
*****
 46 49 0 0 0
SMALL
GASTEIGER

@<TRIPOS>ATOM
      1 C          62.1950   88.7733   11.5724 C.2     1  UNL1        0.2491
      2 O          61.4103   90.0511   11.5320 O.2     1  UNL1       -0.2727
      3 N          61.6790   87.5538   10.8677 N.am    1  UNL1       -0.2724
      4 C          63.4955   88.7151   12.3175 C.3     1  UNL1        0.1934
      5 C          63.4580   89.6336   16.1782 C.ar    1  UNL1        0.0529
      6 C          63.2888   88.8618   14.9032 C.ar    1  UNL1        0.0782
      7 N          63.6647   89.4870   13.5925 N.ar    1  UNL1       -0.2979
      8 C          64.2097   90.8840   13.5568 C.ar    1  UNL1        0.1750
      9 N          64.3789   91.6558   14.8318 N.ar    1  UNL1       -0.1847
     10 C          64.0030   91.0306   16.1425 C.ar    1  UNL1        0.2783
     11 O          64.1722   91.8025   17.4175 O.2     1  UNL1       -0.2654
     12 C          62.7614   87.5448   17.5571 C.3     1  UNL1        0.0052
     13 C          63.0821   89.0085   17.4889 C.3     1  UNL1        0.0328
     14 S          64.5856   91.5091   12.2461 S.3     1  UNL1       -0.0724
     15 C          66.0270   91.7770   11.9289 C.3     1  UNL1        0.0913
     16 C          66.4125   93.0213   11.1851 C.ar    1  UNL1       -0.0108
     17 C          65.9744   94.3637   11.6911 C.ar    1  UNL1       -0.0011
     18 C          66.3599   95.6079   10.9474 C.ar    1  UNL1        0.0293
     19 C          67.1837   95.5097    9.6976 C.ar    1  UNL1        0.1401
     20 F          67.5692   96.7540    8.9538 F       1  UNL1       -0.2042
     21 C          67.6218   94.1673    9.1916 C.ar    1  UNL1        0.0293
     22 C          67.2362   92.9231    9.9354 C.ar    1  UNL1       -0.0011
     23 C          62.4636   86.2760   10.9082 C.3     1  UNL1        0.1111
     24 C          62.1281   85.2216   11.9209 C.3     1  UNL1        0.0939
     25 N          63.2189   84.5849   12.7301 N.3     1  UNL1       -0.2712
     26 C          64.1122   83.5545   12.1055 C.3     1  UNL1        0.0722
     27 C          63.9848   83.2376   10.6449 C.3     1  UNL1        0.0188
     28 C          63.4162   84.9785   14.1640 C.3     1  UNL1        0.0722
     29 C          64.7724   85.4008   14.6460 C.3     1  UNL1        0.0188
     30 C          60.3784   87.6120   10.1227 C.3     1  UNL1        0.1202
     31 C          60.2581   88.4565    8.8889 C.ar    1  UNL1       -0.0023
     32 C          59.3237   88.0484    7.7888 C.ar    1  UNL1       -0.0026
     33 C          59.2034   88.8929    6.5550 C.ar    1  UNL1       -0.0003
     34 C          60.0176   90.1456    6.4212 C.ar    1  UNL1       -0.0000
     35 C          60.9521   90.5537    7.5213 C.ar    1  UNL1       -0.0003
     36 C          61.0724   89.7092    8.7551 C.ar    1  UNL1       -0.0026
     37 C          59.8973   90.9900    5.1874 C.ar    1  UNL1       -0.0000
     38 C          61.1243   91.3543    4.4053 C.ar    1  UNL1       -0.0001
     39 C          61.0039   92.1988    3.1714 C.ar    1  UNL1        0.0039
     40 C          59.6566   92.6790    2.7197 C.ar    1  UNL1        0.0714
     41 C          58.4296   92.3148    3.5019 C.ar    1  UNL1        0.0039
     42 C          58.5499   91.4703    4.7357 C.ar    1  UNL1       -0.0001
     43 C          59.5363   93.5236    1.4859 C.3     1  UNL1        0.4186
     44 F          59.4159   94.3681    0.2521 F       1  UNL1       -0.1659
     45 F          59.8866   94.7428    2.2863 F       1  UNL1       -0.1659
     46 F          59.1859   92.3043    0.6855 F       1  UNL1       -0.1659
@<TRIPOS>BOND
     1    12    13    1
     2    13     5    1
     3     5     6   ar
     4     6     7   ar
     5     7     4    1
     6     4     1    1
     7     1     2    2
     8     1     3   am
     9     3    23    1
    10    23    24    1
    11    24    25    1
    12    25    26    1
    13    26    27    1
    14    25    28    1
    15    28    29    1
    16     3    30    1
    17    30    31    1
    18    31    32   ar
    19    32    33   ar
    20    33    34   ar
    21    34    37    1
    22    37    38   ar
    23    38    39   ar
    24    39    40   ar
    25    40    43    1
    26    43    44    1
    27    43    45    1
    28    43    46    1
    29    40    41   ar
    30    41    42   ar
    31    34    35   ar
    32    35    36   ar
    33     7     8   ar
    34     8    14    1
    35    14    15    1
    36    15    16    1
    37    16    17   ar
    38    17    18   ar
    39    18    19   ar
    40    19    20    1
    41    19    21   ar
    42    21    22   ar
    43     8     9   ar
    44     9    10   ar
    45    10    11    2
    46    10     5   ar
    47    36    31   ar
    48    22    16   ar
    49    42    37   ar
@<TRIPOS>MOLECULE
*****
 46 49 0 0 0
SMALL
GASTEIGER

@<TRIPOS>ATOM
      1 C          61.3713   88.4916   12.0848 C.2     1  UNL1        0.2491
      2 O          60.2687   89.4874   12.2913 O.2     1  UNL1       -0.2727
      3 N          61.2668   87.4736   10.9880 N.am    1  UNL1       -0.2724
      4 C          62.5784   88.5138   12.9749 C.3     1  UNL1        0.1934
      5 C          64.7229   91.7466   12.1378 C.ar    1  UNL1        0.0529
      6 C          63.9455   90.4761   11.9598 C.ar    1  UNL1        0.0782
      7 N          63.3557   89.7843   13.1530 N.ar    1  UNL1       -0.2979
      8 C          63.5432   90.3630   14.5241 C.ar    1  UNL1        0.1750
      9 N          64.3205   91.6334   14.7020 N.ar    1  UNL1       -0.1847
     10 C          64.9104   92.3252   13.5089 C.ar    1  UNL1        0.2783
     11 O          65.6877   93.5957   13.6870 O.2     1  UNL1       -0.2654
     12 C          66.7921   92.3864   10.7030 C.3     1  UNL1        0.0052
     13 C          65.3127   92.4383   10.9447 C.3     1  UNL1        0.0328
     14 S          62.9534   89.6712   15.7172 S.3     1  UNL1       -0.0724
     15 C          63.7621   88.6589   16.4729 C.3     1  UNL1        0.0913
     16 C          63.6709   87.2057   16.1125 C.ar    1  UNL1       -0.0108
     17 C          62.7273   86.3065   16.8551 C.ar    1  UNL1       -0.0011
     18 C          62.6361   84.8533   16.4947 C.ar    1  UNL1        0.0293
     19 C          63.4885   84.2993   15.3917 C.ar    1  UNL1        0.1401
     20 F          63.3973   82.8460   15.0313 F       1  UNL1       -0.2042
     21 C          64.4320   85.1984   14.6491 C.ar    1  UNL1        0.0293
     22 C          64.5232   86.6516   15.0096 C.ar    1  UNL1       -0.0011
     23 C          62.3694   86.4778   10.7815 C.3     1  UNL1        0.1111
     24 C          62.1935   85.0591   11.2356 C.3     1  UNL1        0.0939
     25 N          63.0869   83.9823   10.6949 N.3     1  UNL1       -0.2712
     26 C          63.7009   84.1301    9.3344 C.3     1  UNL1        0.0722
     27 C          62.9487   84.8346    8.2445 C.3     1  UNL1        0.0188
     28 C          63.3662   82.7576   11.5147 C.3     1  UNL1        0.0722
     29 C          62.2601   82.1059   12.2904 C.3     1  UNL1        0.0188
     30 C          60.0597   87.4514   10.0978 C.3     1  UNL1        0.1202
     31 C          60.0117   88.3222    8.8775 C.ar    1  UNL1       -0.0023
     32 C          59.3541   87.8230    7.6252 C.ar    1  UNL1       -0.0026
     33 C          59.3061   88.6939    6.4049 C.ar    1  UNL1       -0.0003
     34 C          59.9157   90.0641    6.4368 C.ar    1  UNL1       -0.0000
     35 C          60.5733   90.5633    7.6892 C.ar    1  UNL1       -0.0003
     36 C          60.6213   89.6925    8.9095 C.ar    1  UNL1       -0.0026
     37 C          59.8676   90.9349    5.2165 C.ar    1  UNL1       -0.0000
     38 C          58.5568   91.4868    4.7401 C.ar    1  UNL1       -0.0001
     39 C          58.5088   92.3577    3.5197 C.ar    1  UNL1        0.0039
     40 C          59.7716   92.6767    2.7758 C.ar    1  UNL1        0.0714
     41 C          61.0825   92.1249    3.2523 C.ar    1  UNL1        0.0039
     42 C          61.1306   91.2540    4.4726 C.ar    1  UNL1       -0.0001
     43 C          59.7237   93.5477    1.5554 C.3     1  UNL1        0.4186
     44 F          59.6757   94.4185    0.3351 F       1  UNL1       -0.1659
     45 F          59.3718   92.3542    0.7177 F       1  UNL1       -0.1659
     46 F          60.0756   94.7411    2.3932 F       1  UNL1       -0.1659
@<TRIPOS>BOND
     1    12    13    1
     2    13     5    1
     3     5     6   ar
     4     6     7   ar
     5     7     4    1
     6     4     1    1
     7     1     2    2
     8     1     3   am
     9     3    23    1
    10    23    24    1
    11    24    25    1
    12    25    26    1
    13    26    27    1
    14    25    28    1
    15    28    29    1
    16     3    30    1
    17    30    31    1
    18    31    32   ar
    19    32    33   ar
    20    33    34   ar
    21    34    37    1
    22    37    38   ar
    23    38    39   ar
    24    39    40   ar
    25    40    43    1
    26    43    44    1
    27    43    45    1
    28    43    46    1
    29    40    41   ar
    30    41    42   ar
    31    34    35   ar
    32    35    36   ar
    33     7     8   ar
    34     8    14    1
    35    14    15    1
    36    15    16    1
    37    16    17   ar
    38    17    18   ar
    39    18    19   ar
    40    19    20    1
    41    19    21   ar
    42    21    22   ar
    43     8     9   ar
    44     9    10   ar
    45    10    11    2
    46    10     5   ar
    47    36    31   ar
    48    22    16   ar
    49    42    37   ar
@<TRIPOS>MOLECULE
*****
 46 49 0 0 0
SMALL
GASTEIGER

@<TRIPOS>ATOM
      1 C          62.0578   88.4577   11.5734 C.2     1  UNL1        0.2491
      2 O          61.2658   89.7314   11.5548 O.2     1  UNL1       -0.2727
      3 N          61.5643   87.2565   10.8224 N.am    1  UNL1       -0.2724
      4 C          63.3433   88.3850   12.3429 C.3     1  UNL1        0.1934
      5 C          63.4011   89.4191   16.1740 C.ar    1  UNL1        0.0529
      6 C          63.2249   88.6008   14.9293 C.ar    1  UNL1        0.0782
      7 N          63.5196   89.2033   13.5877 N.ar    1  UNL1       -0.2979
      8 C          63.9906   90.6241   13.4907 C.ar    1  UNL1        0.1750
      9 N          64.1669   91.4424   14.7354 N.ar    1  UNL1       -0.1847
     10 C          63.8721   90.8399   16.0771 C.ar    1  UNL1        0.2783
     11 O          64.0484   91.6582   17.3218 O.2     1  UNL1       -0.2654
     12 C          62.7376   87.3665   17.6220 C.3     1  UNL1        0.0052
     13 C          63.1064   88.8166   17.5157 C.3     1  UNL1        0.0328
     14 S          64.2853   91.2267   12.1490 S.3     1  UNL1       -0.0724
     15 C          65.2456   92.3735   12.0364 C.3     1  UNL1        0.0913
     16 C          66.3296   92.5471   13.0586 C.ar    1  UNL1       -0.0108
     17 C          67.4903   91.5973   13.0896 C.ar    1  UNL1       -0.0011
     18 C          68.5743   91.7709   14.1117 C.ar    1  UNL1        0.0293
     19 C          68.4976   92.8943   15.1028 C.ar    1  UNL1        0.1401
     20 F          69.5817   93.0679   16.1250 F       1  UNL1       -0.2042
     21 C          67.3370   93.8440   15.0718 C.ar    1  UNL1        0.0293
     22 C          66.2530   93.6703   14.0497 C.ar    1  UNL1       -0.0011
     23 C          62.3563   85.9828   10.8411 C.3     1  UNL1        0.1111
     24 C          62.0420   84.9189   11.8506 C.3     1  UNL1        0.0939
     25 N          63.1267   84.0062   12.3409 N.3     1  UNL1       -0.2712
     26 C          63.1299   83.5438   13.7678 C.3     1  UNL1        0.0722
     27 C          62.6353   82.1702   14.1122 C.3     1  UNL1        0.0188
     28 C          64.2083   83.5560   11.4042 C.3     1  UNL1        0.0722
     29 C          63.9441   82.4442   10.4325 C.3     1  UNL1        0.0188
     30 C          60.2788   87.3292   10.0529 C.3     1  UNL1        0.1202
     31 C          60.1731   88.2217    8.8520 C.ar    1  UNL1       -0.0023
     32 C          59.4166   87.7628    7.6407 C.ar    1  UNL1       -0.0026
     33 C          59.3109   88.6554    6.4398 C.ar    1  UNL1       -0.0003
     34 C          59.9616   90.0068    6.4502 C.ar    1  UNL1       -0.0000
     35 C          60.7180   90.4657    7.6614 C.ar    1  UNL1       -0.0003
     36 C          60.8238   89.5732    8.8623 C.ar    1  UNL1       -0.0026
     37 C          59.8559   90.8993    5.2493 C.ar    1  UNL1       -0.0000
     38 C          61.0887   91.2699    4.4794 C.ar    1  UNL1       -0.0001
     39 C          60.9829   92.1625    3.2784 C.ar    1  UNL1        0.0039
     40 C          59.6443   92.6843    2.8474 C.ar    1  UNL1        0.0714
     41 C          58.4115   92.3137    3.6173 C.ar    1  UNL1        0.0039
     42 C          58.5172   91.4212    4.8182 C.ar    1  UNL1       -0.0001
     43 C          59.5385   93.5769    1.6464 C.3     1  UNL1        0.4186
     44 F          59.4327   94.4694    0.4455 F       1  UNL1       -0.1659
     45 F          59.1100   92.4053    0.8135 F       1  UNL1       -0.1659
     46 F          59.9671   94.7485    2.4793 F       1  UNL1       -0.1659
@<TRIPOS>BOND
     1    12    13    1
     2    13     5    1
     3     5     6   ar
     4     6     7   ar
     5     7     4    1
     6     4     1    1
     7     1     2    2
     8     1     3   am
     9     3    23    1
    10    23    24    1
    11    24    25    1
    12    25    26    1
    13    26    27    1
    14    25    28    1
    15    28    29    1
    16     3    30    1
    17    30    31    1
    18    31    32   ar
    19    32    33   ar
    20    33    34   ar
    21    34    37    1
    22    37    38   ar
    23    38    39   ar
    24    39    40   ar
    25    40    43    1
    26    43    44    1
    27    43    45    1
    28    43    46    1
    29    40    41   ar
    30    41    42   ar
    31    34    35   ar
    32    35    36   ar
    33     7     8   ar
    34     8    14    1
    35    14    15    1
    36    15    16    1
    37    16    17   ar
    38    17    18   ar
    39    18    19   ar
    40    19    20    1
    41    19    21   ar
    42    21    22   ar
    43     8     9   ar
    44     9    10   ar
    45    10    11    2
    46    10     5   ar
    47    36    31   ar
    48    22    16   ar
    49    42    37   ar
@<TRIPOS>MOLECULE
*****
 46 49 0 0 0
SMALL
GASTEIGER

@<TRIPOS>ATOM
      1 C          59.3557   87.7216    8.6379 C.2     1  UNL1        0.2491
      2 O          58.3226   86.8075    8.0487 O.2     1  UNL1       -0.2727
      3 N          59.5076   89.1187    8.1132 N.am    1  UNL1       -0.2724
      4 C          60.2368   87.2387    9.7515 C.3     1  UNL1        0.1934
      5 C          62.6712   84.7977    7.7855 C.ar    1  UNL1        0.0529
      6 C          61.5961   85.8061    8.0633 C.ar    1  UNL1        0.0782
      7 N          61.3120   86.2302    9.4737 N.ar    1  UNL1       -0.2979
      8 C          62.1029   85.6459   10.6064 C.ar    1  UNL1        0.1750
      9 N          63.1780   84.6375   10.3286 N.ar    1  UNL1       -0.1847
     10 C          63.4622   84.2134    8.9181 C.ar    1  UNL1        0.2783
     11 O          64.5373   83.2049    8.6403 O.2     1  UNL1       -0.2654
     12 C          61.8222   84.1141    5.4271 C.3     1  UNL1        0.0052
     13 C          62.9554   84.3736    6.3750 C.3     1  UNL1        0.0328
     14 S          61.8188   86.0700   12.0169 S.3     1  UNL1       -0.0724
     15 C          62.6905   85.5835   13.1364 C.3     1  UNL1        0.0913
     16 C          62.8441   84.1117   13.3821 C.ar    1  UNL1       -0.0108
     17 C          61.8131   83.3736   14.1836 C.ar    1  UNL1       -0.0011
     18 C          61.9667   81.9018   14.4293 C.ar    1  UNL1        0.0293
     19 C          63.1512   81.1682   13.8735 C.ar    1  UNL1        0.1401
     20 F          63.3048   79.6965   14.1192 F       1  UNL1       -0.2042
     21 C          64.1820   81.9064   13.0720 C.ar    1  UNL1        0.0293
     22 C          64.0285   83.3781   12.8263 C.ar    1  UNL1       -0.0011
     23 C          60.5407   90.0328    8.7024 C.3     1  UNL1        0.1111
     24 C          60.6349   90.1983   10.1902 C.3     1  UNL1        0.0939
     25 N          61.9686   90.4307   10.8361 N.3     1  UNL1       -0.2712
     26 C          63.0915   91.0308   10.0432 C.3     1  UNL1        0.0722
     27 C          64.0999   91.9118   10.7192 C.3     1  UNL1        0.0188
     28 C          62.1793   90.0631   12.2750 C.3     1  UNL1        0.0722
     29 C          63.3915   89.2770   12.6784 C.3     1  UNL1        0.0188
     30 C          58.6265   89.6016    6.9996 C.3     1  UNL1        0.1202
     31 C          59.2013   90.4450    5.9004 C.ar    1  UNL1       -0.0023
     32 C          60.6531   90.3239    5.5432 C.ar    1  UNL1       -0.0026
     33 C          61.2279   91.1674    4.4440 C.ar    1  UNL1       -0.0003
     34 C          60.3509   92.1319    3.7020 C.ar    1  UNL1       -0.0000
     35 C          58.8991   92.2530    4.0592 C.ar    1  UNL1       -0.0003
     36 C          58.3243   91.4096    5.1584 C.ar    1  UNL1       -0.0026
     37 C          60.9257   92.9753    2.6028 C.ar    1  UNL1       -0.0000
     38 C          60.0602   93.9739    1.8929 C.ar    1  UNL1       -0.0001
     39 C          60.6351   94.8173    0.7937 C.ar    1  UNL1        0.0039
     40 C          62.0753   94.6622    0.4045 C.ar    1  UNL1        0.0714
     41 C          62.9408   93.6637    1.1144 C.ar    1  UNL1        0.0039
     42 C          62.3660   92.8203    2.2135 C.ar    1  UNL1       -0.0001
     43 C          62.6502   95.5056   -0.6948 C.3     1  UNL1        0.4186
     44 F          63.2251   96.3490   -1.7939 F       1  UNL1       -0.1659
     45 F          63.8096   94.5613   -0.8129 F       1  UNL1       -0.1659
     46 F          61.4908   96.4499   -0.5766 F       1  UNL1       -0.1659
@<TRIPOS>BOND
     1    12    13    1
     2    13     5    1
     3     5     6   ar
     4     6     7   ar
     5     7     4    1
     6     4     1    1
     7     1     2    2
     8     1     3   am
     9     3    23    1
    10    23    24    1
    11    24    25    1
    12    25    26    1
    13    26    27    1
    14    25    28    1
    15    28    29    1
    16     3    30    1
    17    30    31    1
    18    31    32   ar
    19    32    33   ar
    20    33    34   ar
    21    34    37    1
    22    37    38   ar
    23    38    39   ar
    24    39    40   ar
    25    40    43    1
    26    43    44    1
    27    43    45    1
    28    43    46    1
    29    40    41   ar
    30    41    42   ar
    31    34    35   ar
    32    35    36   ar
    33     7     8   ar
    34     8    14    1
    35    14    15    1
    36    15    16    1
    37    16    17   ar
    38    17    18   ar
    39    18    19   ar
    40    19    20    1
    41    19    21   ar
    42    21    22   ar
    43     8     9   ar
    44     9    10   ar
    45    10    11    2
    46    10     5   ar
    47    36    31   ar
    48    22    16   ar
    49    42    37   ar
@<TRIPOS>MOLECULE
*****
 46 49 0 0 0
SMALL
GASTEIGER

@<TRIPOS>ATOM
      1 C          62.2499   85.7100   11.8962 C.2     1  UNL1        0.2491
      2 O          61.8732   84.3664   11.3457 O.2     1  UNL1       -0.2727
      3 N          61.4621   86.9266   11.5096 N.am    1  UNL1       -0.2724
      4 C          63.4142   85.8369   12.8332 C.3     1  UNL1        0.1934
      5 C          63.2012   87.4598   16.4486 C.ar    1  UNL1        0.0529
      6 C          63.4373   87.3071   14.9752 C.ar    1  UNL1        0.0782
      7 N          63.1781   85.9896   14.3067 N.ar    1  UNL1       -0.2979
      8 C          62.6827   84.8248   15.1115 C.ar    1  UNL1        0.1750
      9 N          62.4465   84.9775   16.5849 N.ar    1  UNL1       -0.1847
     10 C          62.7058   86.2950   17.2534 C.ar    1  UNL1        0.2783
     11 O          62.4696   86.4477   18.7269 O.2     1  UNL1       -0.2654
     12 C          62.9163   90.0412   16.5202 C.3     1  UNL1        0.0052
     13 C          63.4604   88.7773   17.1172 C.3     1  UNL1        0.0328
     14 S          62.4234   83.5073   14.4430 S.3     1  UNL1       -0.0724
     15 C          63.5728   82.6648   13.9749 C.3     1  UNL1        0.0913
     16 C          63.4214   81.7979   12.7601 C.ar    1  UNL1       -0.0108
     17 C          62.7632   80.4548   12.8745 C.ar    1  UNL1       -0.0011
     18 C          62.6118   79.5879   11.6598 C.ar    1  UNL1        0.0293
     19 C          63.1186   80.0641   10.3307 C.ar    1  UNL1        0.1401
     20 F          62.9673   79.1972    9.1159 F       1  UNL1       -0.2042
     21 C          63.7768   81.4071   10.2163 C.ar    1  UNL1        0.0293
     22 C          63.9282   82.2740   11.4311 C.ar    1  UNL1       -0.0011
     23 C          61.8388   88.2701   12.0601 C.3     1  UNL1        0.1111
     24 C          63.2042   88.8325   11.7968 C.3     1  UNL1        0.0939
     25 N          63.4458   90.3072   11.9270 N.3     1  UNL1       -0.2712
     26 C          63.7172   90.9066   13.2750 C.3     1  UNL1        0.0722
     27 C          65.0896   90.8157   13.8736 C.3     1  UNL1        0.0188
     28 C          63.4160   91.1825   10.7093 C.3     1  UNL1        0.0722
     29 C          64.4928   92.2043   10.4935 C.3     1  UNL1        0.0188
     30 C          60.2977   86.7996   10.5726 C.3     1  UNL1        0.1202
     31 C          60.1798   87.7199    9.3940 C.ar    1  UNL1       -0.0023
     32 C          60.5656   89.1632    9.5278 C.ar    1  UNL1       -0.0026
     33 C          60.4476   90.0835    8.3492 C.ar    1  UNL1       -0.0003
     34 C          59.9438   89.5605    7.0367 C.ar    1  UNL1       -0.0000
     35 C          59.5579   88.1171    6.9029 C.ar    1  UNL1       -0.0003
     36 C          59.6759   87.1969    8.0815 C.ar    1  UNL1       -0.0026
     37 C          59.8258   90.4807    5.8581 C.ar    1  UNL1       -0.0000
     38 C          58.4793   90.9885    5.4349 C.ar    1  UNL1       -0.0001
     39 C          58.3614   91.9088    4.2562 C.ar    1  UNL1        0.0039
     40 C          59.5899   92.3213    3.5009 C.ar    1  UNL1        0.0714
     41 C          60.9364   91.8136    3.9241 C.ar    1  UNL1        0.0039
     42 C          61.0543   90.8933    5.1027 C.ar    1  UNL1       -0.0001
     43 C          59.4719   93.2417    2.3222 C.3     1  UNL1        0.4186
     44 F          59.3540   94.1620    1.1436 F       1  UNL1       -0.1659
     45 F          60.3202   94.2564    3.0297 F       1  UNL1       -0.1659
     46 F          58.6237   92.2269    1.6147 F       1  UNL1       -0.1659
@<TRIPOS>BOND
     1    12    13    1
     2    13     5    1
     3     5     6   ar
     4     6     7   ar
     5     7     4    1
     6     4     1    1
     7     1     2    2
     8     1     3   am
     9     3    23    1
    10    23    24    1
    11    24    25    1
    12    25    26    1
    13    26    27    1
    14    25    28    1
    15    28    29    1
    16     3    30    1
    17    30    31    1
    18    31    32   ar
    19    32    33   ar
    20    33    34   ar
    21    34    37    1
    22    37    38   ar
    23    38    39   ar
    24    39    40   ar
    25    40    43    1
    26    43    44    1
    27    43    45    1
    28    43    46    1
    29    40    41   ar
    30    41    42   ar
    31    34    35   ar
    32    35    36   ar
    33     7     8   ar
    34     8    14    1
    35    14    15    1
    36    15    16    1
    37    16    17   ar
    38    17    18   ar
    39    18    19   ar
    40    19    20    1
    41    19    21   ar
    42    21    22   ar
    43     8     9   ar
    44     9    10   ar
    45    10    11    2
    46    10     5   ar
    47    36    31   ar
    48    22    16   ar
    49    42    37   ar
