@<TRIPOS>MOLECULE
*****
 34 39 0 0 0
SMALL
GASTEIGER

@<TRIPOS>ATOM
      1 N          63.5087   91.2219   11.3194 N.pl3   1  UNL1       -0.3046
      2 C          62.7722   91.0439   10.0249 C.3     1  UNL1        0.1081
      3 C          61.6214   90.0853    9.9424 C.3     1  UNL1        0.0938
      4 N          61.2070   89.3048   11.1545 N.3     1  UNL1       -0.2695
      5 C          61.9436   89.4830   12.4491 C.3     1  UNL1        0.0938
      6 C          63.0944   90.4415   12.5315 C.3     1  UNL1        0.1081
      7 C          68.1364   92.2806   16.2907 C.3     1  UNL1        0.0521
      8 C          67.2672   92.2555   15.0685 C.ar    1  UNL1        0.0593
      9 C          66.1164   91.2970   14.9861 C.ar    1  UNL1        0.0148
     10 C          65.2471   91.2720   13.7638 C.ar    1  UNL1        0.0039
     11 C          65.5287   92.2055   12.6240 C.ar    1  UNL1        0.0310
     12 C          64.6595   92.1805   11.4018 C.ar    1  UNL1        0.0493
     13 C          64.9411   93.1141   10.2619 C.ar    1  UNL1        0.0146
     14 C          66.0919   94.0726   10.3444 C.ar    1  UNL1        0.0028
     15 C          66.9611   94.0976   11.5666 C.ar    1  UNL1        0.0192
     16 C          66.6796   93.1641   12.7064 C.ar    1  UNL1        0.0821
     17 N          67.5488   93.1891   13.9286 N.ar    1  UNL1       -0.2496
     18 C          60.0562   88.3463   11.0721 C.3     1  UNL1        0.0770
     19 C          59.7723   87.6238    9.7886 C.3     1  UNL1        0.0468
     20 C          60.7580   86.6266    9.2554 C.ar    1  UNL1        0.0146
     21 C          60.9251   86.4554    7.7746 C.ar    1  UNL1       -0.0011
     22 C          61.9107   85.4582    7.2415 C.ar    1  UNL1        0.0014
     23 C          62.7291   84.6323    8.1892 C.ar    1  UNL1        0.0206
     24 C          62.5620   84.8036    9.6699 C.ar    1  UNL1        0.0989
     25 C          61.5764   85.8007   10.2030 C.ar    1  UNL1        0.1511
     26 O          61.4093   85.9720   11.6839 O.3     1  UNL1       -0.4678
     27 C          62.2277   85.1462   12.6315 C.3     1  UNL1        0.2515
     28 C          63.2133   84.1489   12.0983 C.ar    1  UNL1        0.1141
     29 C          64.1522   83.2009   12.7836 C.ar    1  UNL1        0.1663
     30 N          64.8997   82.4436   11.7262 N.ar    1  UNL1       -0.2134
     31 C          64.4227   82.9237   10.3876 C.ar    1  UNL1        0.1834
     32 N          63.3804   83.9777   10.6176 N.ar    1  UNL1       -0.2847
     33 C          64.3151   83.0385   14.2658 C.1     1  UNL1        0.1211
     34 N          64.4781   82.8762   15.7481 N.1     1  UNL1       -0.1892
@<TRIPOS>BOND
     1     7     8    1
     2     8     9   ar
     3     9    10   ar
     4    10    11   ar
     5    11    12   ar
     6    12     1    1
     7     1     2    1
     8     2     3    1
     9     3     4    1
    10     4    18    1
    11    18    19    1
    12    19    20    1
    13    20    21   ar
    14    21    22   ar
    15    22    23   ar
    16    23    24   ar
    17    24    25   ar
    18    25    26    1
    19    26    27    1
    20    27    28    1
    21    28    29   ar
    22    29    33    1
    23    33    34    3
    24    29    30   ar
    25    30    31   ar
    26    31    32   ar
    27     4     5    1
    28     5     6    1
    29    12    13   ar
    30    13    14   ar
    31    14    15   ar
    32    15    16   ar
    33    16    17   ar
    34    17     8   ar
    35    16    11   ar
    36     6     1    1
    37    25    20   ar
    38    32    28   ar
    39    32    24    1
@<TRIPOS>MOLECULE
*****
 34 39 0 0 0
SMALL
GASTEIGER

@<TRIPOS>ATOM
      1 N          63.1733   90.6336   11.7566 N.pl3   1  UNL1       -0.3046
      2 C          63.2074   90.6881   10.2580 C.3     1  UNL1        0.1081
      3 C          62.0931   90.0788    9.4597 C.3     1  UNL1        0.0938
      4 N          60.9446   89.4152   10.1602 N.3     1  UNL1       -0.2695
      5 C          60.9105   89.3608   11.6589 C.3     1  UNL1        0.0938
      6 C          62.0248   89.9700   12.4570 C.3     1  UNL1        0.1081
      7 C          67.2882   95.9691   10.3962 C.3     1  UNL1        0.0521
      8 C          66.5380   94.7875   10.9358 C.ar    1  UNL1        0.0593
      9 C          65.4237   94.1783   10.1377 C.ar    1  UNL1        0.0148
     10 C          64.6736   92.9967   10.6773 C.ar    1  UNL1        0.0039
     11 C          65.0377   92.4244   12.0151 C.ar    1  UNL1        0.0310
     12 C          64.2876   91.2429   12.5547 C.ar    1  UNL1        0.0493
     13 C          64.6518   90.6705   13.8926 C.ar    1  UNL1        0.0146
     14 C          65.7661   91.2797   14.6908 C.ar    1  UNL1        0.0028
     15 C          66.5163   92.4613   14.1512 C.ar    1  UNL1        0.0192
     16 C          66.1521   93.0336   12.8133 C.ar    1  UNL1        0.0821
     17 N          66.9022   94.2152   12.2737 N.ar    1  UNL1       -0.2496
     18 C          59.8303   88.8060    9.3620 C.3     1  UNL1        0.0770
     19 C          59.5926   87.3258    9.4141 C.3     1  UNL1        0.0468
     20 C          60.6639   86.3778    8.9628 C.ar    1  UNL1        0.0146
     21 C          60.8914   86.1453    7.4986 C.ar    1  UNL1       -0.0011
     22 C          61.9626   85.1973    7.0473 C.ar    1  UNL1        0.0014
     23 C          62.8064   84.4818    8.0603 C.ar    1  UNL1        0.0206
     24 C          62.5789   84.7144    9.5246 C.ar    1  UNL1        0.0989
     25 C          61.5076   85.6623    9.9758 C.ar    1  UNL1        0.1511
     26 O          61.2800   85.8949   11.4402 O.3     1  UNL1       -0.4678
     27 C          62.1238   85.1794   12.4532 C.3     1  UNL1        0.2515
     28 C          63.1951   84.2314   12.0019 C.ar    1  UNL1        0.1141
     29 C          64.1762   83.3899   12.7628 C.ar    1  UNL1        0.1663
     30 N          65.0102   82.6372   11.7688 N.ar    1  UNL1       -0.2134
     31 C          64.5444   83.0136   10.3936 C.ar    1  UNL1        0.1834
     32 N          63.4226   83.9989   10.5376 N.ar    1  UNL1       -0.2847
     33 C          64.3015   83.3143   14.2557 C.1     1  UNL1        0.1211
     34 N          64.4267   83.2387   15.7486 N.1     1  UNL1       -0.1892
@<TRIPOS>BOND
     1     7     8    1
     2     8     9   ar
     3     9    10   ar
     4    10    11   ar
     5    11    12   ar
     6    12     1    1
     7     1     2    1
     8     2     3    1
     9     3     4    1
    10     4    18    1
    11    18    19    1
    12    19    20    1
    13    20    21   ar
    14    21    22   ar
    15    22    23   ar
    16    23    24   ar
    17    24    25   ar
    18    25    26    1
    19    26    27    1
    20    27    28    1
    21    28    29   ar
    22    29    33    1
    23    33    34    3
    24    29    30   ar
    25    30    31   ar
    26    31    32   ar
    27     4     5    1
    28     5     6    1
    29    12    13   ar
    30    13    14   ar
    31    14    15   ar
    32    15    16   ar
    33    16    17   ar
    34    17     8   ar
    35    16    11   ar
    36     6     1    1
    37    25    20   ar
    38    32    28   ar
    39    32    24    1
@<TRIPOS>MOLECULE
*****
 34 39 0 0 0
SMALL
GASTEIGER

@<TRIPOS>ATOM
      1 N          64.3400   89.6346   14.4433 N.pl3   1  UNL1       -0.3046
      2 C          63.5188   89.7683   15.6914 C.3     1  UNL1        0.1081
      3 C          63.0803   88.5419   16.4357 C.3     1  UNL1        0.0938
      4 N          63.4630   87.1819   15.9318 N.3     1  UNL1       -0.2695
      5 C          64.2843   87.0483   14.6836 C.3     1  UNL1        0.0938
      6 C          64.7227   88.2746   13.9395 C.3     1  UNL1        0.1081
      7 C          69.0554   94.3911   15.9894 C.3     1  UNL1        0.0521
      8 C          67.9862   93.5086   15.4168 C.ar    1  UNL1        0.0593
      9 C          67.5477   92.2822   16.1610 C.ar    1  UNL1        0.0148
     10 C          66.4785   91.3997   15.5884 C.ar    1  UNL1        0.0039
     11 C          65.8476   91.7435   14.2717 C.ar    1  UNL1        0.0310
     12 C          64.7784   90.8610   13.6992 C.ar    1  UNL1        0.0493
     13 C          64.1475   91.2048   12.3824 C.ar    1  UNL1        0.0146
     14 C          64.5860   92.4311   11.6382 C.ar    1  UNL1        0.0028
     15 C          65.6552   93.3137   12.2107 C.ar    1  UNL1        0.0192
     16 C          66.2861   92.9699   13.5275 C.ar    1  UNL1        0.0821
     17 N          67.3553   93.8524   14.1000 N.ar    1  UNL1       -0.2496
     18 C          63.0246   85.9556   16.6759 C.3     1  UNL1        0.0770
     19 C          62.3317   84.8432   15.9463 C.3     1  UNL1        0.0468
     20 C          63.0044   84.1754   14.7836 C.ar    1  UNL1        0.0146
     21 C          63.9797   83.0607   15.0205 C.ar    1  UNL1       -0.0011
     22 C          64.6523   82.3931   13.8579 C.ar    1  UNL1        0.0014
     23 C          64.3496   82.8401   12.4584 C.ar    1  UNL1        0.0206
     24 C          63.3743   83.9548   12.2215 C.ar    1  UNL1        0.0989
     25 C          62.7017   84.6225   13.3842 C.ar    1  UNL1        0.1511
     26 O          61.7263   85.7372   13.1473 O.3     1  UNL1       -0.4678
     27 C          61.4236   86.1843   11.7479 C.3     1  UNL1        0.2515
     28 C          62.0963   85.5165   10.5852 C.ar    1  UNL1        0.1141
     29 C          61.9980   85.7398    9.1052 C.ar    1  UNL1        0.1663
     30 N          62.9126   84.7631    8.4273 N.ar    1  UNL1       -0.2134
     31 C          63.5761   83.9362    9.4884 C.ar    1  UNL1        0.1834
     32 N          63.0716   84.4018   10.8221 N.ar    1  UNL1       -0.2847
     33 C          61.1364   86.7606    8.4229 C.1     1  UNL1        0.1211
     34 N          60.2747   87.7815    7.7405 N.1     1  UNL1       -0.1892
@<TRIPOS>BOND
     1     7     8    1
     2     8     9   ar
     3     9    10   ar
     4    10    11   ar
     5    11    12   ar
     6    12     1    1
     7     1     2    1
     8     2     3    1
     9     3     4    1
    10     4    18    1
    11    18    19    1
    12    19    20    1
    13    20    21   ar
    14    21    22   ar
    15    22    23   ar
    16    23    24   ar
    17    24    25   ar
    18    25    26    1
    19    26    27    1
    20    27    28    1
    21    28    29   ar
    22    29    33    1
    23    33    34    3
    24    29    30   ar
    25    30    31   ar
    26    31    32   ar
    27     4     5    1
    28     5     6    1
    29    12    13   ar
    30    13    14   ar
    31    14    15   ar
    32    15    16   ar
    33    16    17   ar
    34    17     8   ar
    35    16    11   ar
    36     6     1    1
    37    25    20   ar
    38    32    28   ar
    39    32    24    1
@<TRIPOS>MOLECULE
*****
 34 39 0 0 0
SMALL
GASTEIGER

@<TRIPOS>ATOM
      1 N          62.1232   87.5902   11.3011 N.pl3   1  UNL1       -0.3046
      2 C          61.0246   86.7105   10.7822 C.3     1  UNL1        0.1081
      3 C          60.1736   87.1706    9.6358 C.3     1  UNL1        0.0938
      4 N          60.4211   88.5103    9.0084 N.3     1  UNL1       -0.2695
      5 C          61.5197   89.3901    9.5273 C.3     1  UNL1        0.0938
      6 C          62.3707   88.9300   10.6736 C.3     1  UNL1        0.1081
      7 C          63.7813   81.2648   13.4198 C.3     1  UNL1        0.0521
      8 C          63.5795   82.7311   13.1767 C.ar    1  UNL1        0.0593
      9 C          62.7285   83.1912   12.0304 C.ar    1  UNL1        0.0148
     10 C          62.5267   84.6575   11.7873 C.ar    1  UNL1        0.0039
     11 C          63.1759   85.6638   12.6905 C.ar    1  UNL1        0.0310
     12 C          62.9741   87.1302   12.4474 C.ar    1  UNL1        0.0493
     13 C          63.6234   88.1365   13.3507 C.ar    1  UNL1        0.0146
     14 C          64.4743   87.6764   14.4971 C.ar    1  UNL1        0.0028
     15 C          64.6761   86.2101   14.7402 C.ar    1  UNL1        0.0192
     16 C          64.0270   85.2038   13.8369 C.ar    1  UNL1        0.0821
     17 N          64.2288   83.7374   14.0800 N.ar    1  UNL1       -0.2496
     18 C          59.5701   88.9704    7.8620 C.3     1  UNL1        0.0770
     19 C          60.2086   89.3482    6.5583 C.3     1  UNL1        0.0468
     20 C          59.5548   90.3647    5.6698 C.ar    1  UNL1        0.0146
     21 C          58.0832   90.6292    5.7891 C.ar    1  UNL1       -0.0011
     22 C          57.4295   91.6457    4.9006 C.ar    1  UNL1        0.0014
     23 C          58.2474   92.3976    3.8928 C.ar    1  UNL1        0.0206
     24 C          59.7190   92.1331    3.7736 C.ar    1  UNL1        0.0989
     25 C          60.3727   91.1167    4.6621 C.ar    1  UNL1        0.1511
     26 O          61.8445   90.8521    4.5428 O.3     1  UNL1       -0.4678
     27 C          62.6624   91.6041    3.5351 C.3     1  UNL1        0.2515
     28 C          62.0086   92.6206    2.6466 C.ar    1  UNL1        0.1141
     29 C          62.5536   93.5098    1.5686 C.ar    1  UNL1        0.1663
     30 N          61.4187   94.3240    1.0215 N.ar    1  UNL1       -0.2134
     31 C          60.1724   93.9378    1.7615 C.ar    1  UNL1        0.1834
     32 N          60.5370   92.8851    2.7658 N.ar    1  UNL1       -0.2847
     33 C          63.9825   93.5737    1.1168 C.1     1  UNL1        0.1211
     34 N          65.4115   93.6376    0.6651 N.1     1  UNL1       -0.1892
@<TRIPOS>BOND
     1     7     8    1
     2     8     9   ar
     3     9    10   ar
     4    10    11   ar
     5    11    12   ar
     6    12     1    1
     7     1     2    1
     8     2     3    1
     9     3     4    1
    10     4    18    1
    11    18    19    1
    12    19    20    1
    13    20    21   ar
    14    21    22   ar
    15    22    23   ar
    16    23    24   ar
    17    24    25   ar
    18    25    26    1
    19    26    27    1
    20    27    28    1
    21    28    29   ar
    22    29    33    1
    23    33    34    3
    24    29    30   ar
    25    30    31   ar
    26    31    32   ar
    27     4     5    1
    28     5     6    1
    29    12    13   ar
    30    13    14   ar
    31    14    15   ar
    32    15    16   ar
    33    16    17   ar
    34    17     8   ar
    35    16    11   ar
    36     6     1    1
    37    25    20   ar
    38    32    28   ar
    39    32    24    1
@<TRIPOS>MOLECULE
*****
 34 39 0 0 0
SMALL
GASTEIGER

@<TRIPOS>ATOM
      1 N          61.5647   92.6641    2.7629 N.pl3   1  UNL1       -0.3046
      2 C          60.1318   93.0549    2.9722 C.3     1  UNL1        0.1081
      3 C          59.2886   92.3105    3.9648 C.3     1  UNL1        0.0938
      4 N          59.8785   91.1753    4.7479 N.3     1  UNL1       -0.2695
      5 C          61.3115   90.7845    4.5386 C.3     1  UNL1        0.0938
      6 C          62.1546   91.5288    3.5461 C.3     1  UNL1        0.1081
      7 C          60.4851   94.1115   -3.8695 C.3     1  UNL1        0.0521
      8 C          60.9658   93.9357   -2.4596 C.ar    1  UNL1        0.0593
      9 C          60.1227   93.1914   -1.4671 C.ar    1  UNL1        0.0148
     10 C          60.6034   93.0156   -0.0571 C.ar    1  UNL1        0.0039
     11 C          61.9271   93.5842    0.3604 C.ar    1  UNL1        0.0310
     12 C          62.4078   93.4084    1.7704 C.ar    1  UNL1        0.0493
     13 C          63.7316   93.9771    2.1879 C.ar    1  UNL1        0.0146
     14 C          64.5747   94.7214    1.1954 C.ar    1  UNL1        0.0028
     15 C          64.0940   94.8972   -0.2146 C.ar    1  UNL1        0.0192
     16 C          62.7703   94.3286   -0.6321 C.ar    1  UNL1        0.0821
     17 N          62.2896   94.5044   -2.0421 N.ar    1  UNL1       -0.2496
     18 C          59.0354   90.4310    5.7404 C.3     1  UNL1        0.0770
     19 C          59.4753   90.3286    7.1708 C.3     1  UNL1        0.0468
     20 C          59.7951   88.9880    7.7630 C.ar    1  UNL1        0.0146
     21 C          59.2414   87.7412    7.1394 C.ar    1  UNL1       -0.0011
     22 C          59.5612   86.4007    7.7316 C.ar    1  UNL1        0.0014
     23 C          60.4347   86.3070    8.9474 C.ar    1  UNL1        0.0206
     24 C          60.9885   87.5537    9.5710 C.ar    1  UNL1        0.0989
     25 C          60.6686   88.8942    8.9788 C.ar    1  UNL1        0.1511
     26 O          61.2224   90.1411    9.6024 O.3     1  UNL1       -0.4678
     27 C          62.0959   90.0474   10.8182 C.3     1  UNL1        0.2515
     28 C          62.4157   88.7068   11.4104 C.ar    1  UNL1        0.1141
     29 C          63.2421   88.3046   12.5958 C.ar    1  UNL1        0.1663
     30 N          63.1991   86.8091   12.7049 N.ar    1  UNL1       -0.2134
     31 C          62.3461   86.2872   11.5868 C.ar    1  UNL1        0.1834
     32 N          61.8620   87.4600   10.7868 N.ar    1  UNL1       -0.2847
     33 C          63.9816   89.2344   13.5114 C.1     1  UNL1        0.1211
     34 N          64.7212   90.1644   14.4271 N.1     1  UNL1       -0.1892
@<TRIPOS>BOND
     1     7     8    1
     2     8     9   ar
     3     9    10   ar
     4    10    11   ar
     5    11    12   ar
     6    12     1    1
     7     1     2    1
     8     2     3    1
     9     3     4    1
    10     4    18    1
    11    18    19    1
    12    19    20    1
    13    20    21   ar
    14    21    22   ar
    15    22    23   ar
    16    23    24   ar
    17    24    25   ar
    18    25    26    1
    19    26    27    1
    20    27    28    1
    21    28    29   ar
    22    29    33    1
    23    33    34    3
    24    29    30   ar
    25    30    31   ar
    26    31    32   ar
    27     4     5    1
    28     5     6    1
    29    12    13   ar
    30    13    14   ar
    31    14    15   ar
    32    15    16   ar
    33    16    17   ar
    34    17     8   ar
    35    16    11   ar
    36     6     1    1
    37    25    20   ar
    38    32    28   ar
    39    32    24    1
@<TRIPOS>MOLECULE
*****
 34 39 0 0 0
SMALL
GASTEIGER

@<TRIPOS>ATOM
      1 N          63.3322   84.8815   14.4692 N.pl3   1  UNL1       -0.3046
      2 C          62.3609   84.8654   15.6121 C.3     1  UNL1        0.1081
      3 C          62.3312   86.0049   16.5873 C.3     1  UNL1        0.0938
      4 N          63.2728   87.1603   16.4194 N.3     1  UNL1       -0.2695
      5 C          64.2442   87.1764   15.2764 C.3     1  UNL1        0.0938
      6 C          64.2738   86.0369   14.3014 C.3     1  UNL1        0.1081
      7 C          62.7327   84.8013    7.6220 C.3     1  UNL1        0.0521
      8 C          62.8900   84.5365    9.0901 C.ar    1  UNL1        0.0593
      9 C          62.8604   85.6759   10.0651 C.ar    1  UNL1        0.0148
     10 C          63.0176   85.4111   11.5332 C.ar    1  UNL1        0.0039
     11 C          63.2046   84.0069   12.0261 C.ar    1  UNL1        0.0310
     12 C          63.3618   83.7420   13.4942 C.ar    1  UNL1        0.0493
     13 C          63.5487   82.3377   13.9871 C.ar    1  UNL1        0.0146
     14 C          63.5784   81.1982   13.0121 C.ar    1  UNL1        0.0028
     15 C          63.4211   81.4631   11.5440 C.ar    1  UNL1        0.0192
     16 C          63.2342   82.8673   11.0511 C.ar    1  UNL1        0.0821
     17 N          63.0769   83.1322    9.5830 N.ar    1  UNL1       -0.2496
     18 C          63.2432   88.2998   17.3945 C.3     1  UNL1        0.0770
     19 C          62.8039   89.6613   16.9438 C.3     1  UNL1        0.0468
     20 C          63.5880   90.3935   15.8953 C.ar    1  UNL1        0.0146
     21 C          64.8074   91.1771   16.2814 C.ar    1  UNL1       -0.0011
     22 C          65.5914   91.9092   15.2330 C.ar    1  UNL1        0.0014
     23 C          65.1560   91.8578   13.7985 C.ar    1  UNL1        0.0206
     24 C          63.9366   91.0743   13.4124 C.ar    1  UNL1        0.0989
     25 C          63.1526   90.3421   14.4608 C.ar    1  UNL1        0.1511
     26 O          61.9331   89.5586   14.0748 O.3     1  UNL1       -0.4678
     27 C          61.4977   89.5072   12.6403 C.3     1  UNL1        0.2515
     28 C          62.2818   90.2394   11.5918 C.ar    1  UNL1        0.1141
     29 C          62.0963   90.3710   10.1092 C.ar    1  UNL1        0.1663
     30 N          63.2012   91.2359    9.5789 N.ar    1  UNL1       -0.2134
     31 C          64.0694   91.6388   10.7338 C.ar    1  UNL1        0.1834
     32 N          63.5012   91.0229   11.9779 N.ar    1  UNL1       -0.2847
     33 C          60.9988   89.7473    9.2991 C.1     1  UNL1        0.1211
     34 N          59.9012   89.1235    8.4889 N.1     1  UNL1       -0.1892
@<TRIPOS>BOND
     1     7     8    1
     2     8     9   ar
     3     9    10   ar
     4    10    11   ar
     5    11    12   ar
     6    12     1    1
     7     1     2    1
     8     2     3    1
     9     3     4    1
    10     4    18    1
    11    18    19    1
    12    19    20    1
    13    20    21   ar
    14    21    22   ar
    15    22    23   ar
    16    23    24   ar
    17    24    25   ar
    18    25    26    1
    19    26    27    1
    20    27    28    1
    21    28    29   ar
    22    29    33    1
    23    33    34    3
    24    29    30   ar
    25    30    31   ar
    26    31    32   ar
    27     4     5    1
    28     5     6    1
    29    12    13   ar
    30    13    14   ar
    31    14    15   ar
    32    15    16   ar
    33    16    17   ar
    34    17     8   ar
    35    16    11   ar
    36     6     1    1
    37    25    20   ar
    38    32    28   ar
    39    32    24    1
@<TRIPOS>MOLECULE
*****
 34 39 0 0 0
SMALL
GASTEIGER

@<TRIPOS>ATOM
      1 N          62.2159   89.6842   11.2514 N.pl3   1  UNL1       -0.3046
      2 C          62.4981   88.4908   10.3876 C.3     1  UNL1        0.1081
      3 C          61.5608   88.1338    9.2722 C.3     1  UNL1        0.0938
      4 N          60.3412   88.9701    9.0208 N.3     1  UNL1       -0.2695
      5 C          60.0590   90.1635    9.8847 C.3     1  UNL1        0.0938
      6 C          60.9964   90.5205   10.9999 C.3     1  UNL1        0.1081
      7 C          66.8933   94.6946   11.7686 C.3     1  UNL1        0.0521
      8 C          65.9583   93.5313   11.9181 C.ar    1  UNL1        0.0593
      9 C          65.0209   93.1742   10.8029 C.ar    1  UNL1        0.0148
     10 C          64.0859   92.0109   10.9524 C.ar    1  UNL1        0.0039
     11 C          64.0883   91.2045   12.2172 C.ar    1  UNL1        0.0310
     12 C          63.1533   90.0412   12.3667 C.ar    1  UNL1        0.0493
     13 C          63.1556   89.2348   13.6316 C.ar    1  UNL1        0.0146
     14 C          64.0930   89.5918   14.7468 C.ar    1  UNL1        0.0028
     15 C          65.0280   90.7552   14.5973 C.ar    1  UNL1        0.0192
     16 C          65.0256   91.5615   13.3325 C.ar    1  UNL1        0.0821
     17 N          65.9606   92.7249   13.1830 N.ar    1  UNL1       -0.2496
     18 C          59.4039   88.6131    7.9055 C.3     1  UNL1        0.0770
     19 C          59.8071   88.8537    6.4809 C.3     1  UNL1        0.0468
     20 C          59.2259   90.0097    5.7220 C.ar    1  UNL1        0.0146
     21 C          57.7796   90.3686    5.8937 C.ar    1  UNL1       -0.0011
     22 C          57.1985   91.5246    5.1349 C.ar    1  UNL1        0.0014
     23 C          58.0637   92.3217    4.2042 C.ar    1  UNL1        0.0206
     24 C          59.5099   91.9628    4.0324 C.ar    1  UNL1        0.0989
     25 C          60.0910   90.8069    4.7913 C.ar    1  UNL1        0.1511
     26 O          61.5373   90.4479    4.6195 O.3     1  UNL1       -0.4678
     27 C          62.4025   91.2450    3.6889 C.3     1  UNL1        0.2515
     28 C          61.8213   92.4011    2.9300 C.ar    1  UNL1        0.1141
     29 C          62.4242   93.3626    1.9492 C.ar    1  UNL1        0.1663
     30 N          61.3505   94.3158    1.5148 N.ar    1  UNL1       -0.2134
     31 C          60.0841   93.9433    2.2271 C.ar    1  UNL1        0.1834
     32 N          60.3750   92.7600    3.1017 N.ar    1  UNL1       -0.2847
     33 C          63.8503   93.3697    1.4844 C.1     1  UNL1        0.1211
     34 N          65.2765   93.3769    1.0195 N.1     1  UNL1       -0.1892
@<TRIPOS>BOND
     1     7     8    1
     2     8     9   ar
     3     9    10   ar
     4    10    11   ar
     5    11    12   ar
     6    12     1    1
     7     1     2    1
     8     2     3    1
     9     3     4    1
    10     4    18    1
    11    18    19    1
    12    19    20    1
    13    20    21   ar
    14    21    22   ar
    15    22    23   ar
    16    23    24   ar
    17    24    25   ar
    18    25    26    1
    19    26    27    1
    20    27    28    1
    21    28    29   ar
    22    29    33    1
    23    33    34    3
    24    29    30   ar
    25    30    31   ar
    26    31    32   ar
    27     4     5    1
    28     5     6    1
    29    12    13   ar
    30    13    14   ar
    31    14    15   ar
    32    15    16   ar
    33    16    17   ar
    34    17     8   ar
    35    16    11   ar
    36     6     1    1
    37    25    20   ar
    38    32    28   ar
    39    32    24    1
@<TRIPOS>MOLECULE
*****
 34 39 0 0 0
SMALL
GASTEIGER

@<TRIPOS>ATOM
      1 N          62.0319   87.8420   11.2040 N.pl3   1  UNL1       -0.3046
      2 C          60.9873   86.8610   10.7610 C.3     1  UNL1        0.1081
      3 C          60.1180   87.1736    9.5792 C.3     1  UNL1        0.0938
      4 N          60.2935   88.4672    8.8403 N.3     1  UNL1       -0.2695
      5 C          61.3382   89.4482    9.2834 C.3     1  UNL1        0.0938
      6 C          62.2074   89.1356   10.4652 C.3     1  UNL1        0.1081
      7 C          65.5451   91.9760   15.4251 C.3     1  UNL1        0.0521
      8 C          64.8841   90.8644   14.6653 C.ar    1  UNL1        0.0593
      9 C          64.0149   91.1770   13.4835 C.ar    1  UNL1        0.0148
     10 C          63.3539   90.0653   12.7236 C.ar    1  UNL1        0.0039
     11 C          63.5621   88.6411   13.1457 C.ar    1  UNL1        0.0310
     12 C          62.9011   87.5294   12.3858 C.ar    1  UNL1        0.0493
     13 C          63.1093   86.1051   12.8079 C.ar    1  UNL1        0.0146
     14 C          63.9785   85.7925   13.9897 C.ar    1  UNL1        0.0028
     15 C          64.6395   86.9042   14.7495 C.ar    1  UNL1        0.0192
     16 C          64.4314   88.3284   14.3275 C.ar    1  UNL1        0.0821
     17 N          65.0924   89.4401   15.0873 N.ar    1  UNL1       -0.2496
     18 C          59.4243   88.7798    7.6585 C.3     1  UNL1        0.0770
     19 C          60.0476   89.1770    6.3533 C.3     1  UNL1        0.0468
     20 C          59.4588   90.3002    5.5521 C.ar    1  UNL1        0.0146
     21 C          58.0076   90.6484    5.7024 C.ar    1  UNL1       -0.0011
     22 C          57.4189   91.7716    4.9012 C.ar    1  UNL1        0.0014
     23 C          58.2814   92.5466    3.9497 C.ar    1  UNL1        0.0206
     24 C          59.7327   92.1984    3.7994 C.ar    1  UNL1        0.0989
     25 C          60.3213   91.0752    4.6005 C.ar    1  UNL1        0.1511
     26 O          61.7727   90.7270    4.4502 O.3     1  UNL1       -0.4678
     27 C          62.6352   91.5020    3.4987 C.3     1  UNL1        0.2515
     28 C          62.0465   92.6252    2.6975 C.ar    1  UNL1        0.1141
     29 C          62.6453   93.5598    1.6887 C.ar    1  UNL1        0.1663
     30 N          61.5642   94.4857    1.2155 N.ar    1  UNL1       -0.2134
     31 C          60.2971   94.1232    1.9319 C.ar    1  UNL1        0.1834
     32 N          60.5952   92.9734    2.8478 N.ar    1  UNL1       -0.2847
     33 C          64.0744   93.5673    1.2330 C.1     1  UNL1        0.1211
     34 N          65.5036   93.5748    0.7773 N.1     1  UNL1       -0.1892
@<TRIPOS>BOND
     1     7     8    1
     2     8     9   ar
     3     9    10   ar
     4    10    11   ar
     5    11    12   ar
     6    12     1    1
     7     1     2    1
     8     2     3    1
     9     3     4    1
    10     4    18    1
    11    18    19    1
    12    19    20    1
    13    20    21   ar
    14    21    22   ar
    15    22    23   ar
    16    23    24   ar
    17    24    25   ar
    18    25    26    1
    19    26    27    1
    20    27    28    1
    21    28    29   ar
    22    29    33    1
    23    33    34    3
    24    29    30   ar
    25    30    31   ar
    26    31    32   ar
    27     4     5    1
    28     5     6    1
    29    12    13   ar
    30    13    14   ar
    31    14    15   ar
    32    15    16   ar
    33    16    17   ar
    34    17     8   ar
    35    16    11   ar
    36     6     1    1
    37    25    20   ar
    38    32    28   ar
    39    32    24    1
@<TRIPOS>MOLECULE
*****
 34 39 0 0 0
SMALL
GASTEIGER

@<TRIPOS>ATOM
      1 N          61.1617   92.3666    3.0080 N.pl3   1  UNL1       -0.3046
      2 C          59.7685   92.7578    3.4030 C.3     1  UNL1        0.1081
      3 C          59.0810   92.0467    4.5307 C.3     1  UNL1        0.0938
      4 N          59.7867   90.9444    5.2635 N.3     1  UNL1       -0.2695
      5 C          61.1800   90.5532    4.8685 C.3     1  UNL1        0.0938
      6 C          61.8674   91.2643    3.7408 C.3     1  UNL1        0.1081
      7 C          59.1885   93.4724   -3.4830 C.3     1  UNL1        0.0521
      8 C          59.8537   93.3737   -2.1422 C.ar    1  UNL1        0.0593
      9 C          59.1662   92.6627   -1.0145 C.ar    1  UNL1        0.0148
     10 C          59.8314   92.5640    0.3264 C.ar    1  UNL1        0.0039
     11 C          61.1840   93.1763    0.5395 C.ar    1  UNL1        0.0310
     12 C          61.8491   93.0776    1.8803 C.ar    1  UNL1        0.0493
     13 C          63.2018   93.6900    2.0934 C.ar    1  UNL1        0.0146
     14 C          63.8892   94.4011    0.9657 C.ar    1  UNL1        0.0028
     15 C          63.2241   94.4998   -0.3751 C.ar    1  UNL1        0.0192
     16 C          61.8715   93.8874   -0.5883 C.ar    1  UNL1        0.0821
     17 N          61.2063   93.9861   -1.9291 N.ar    1  UNL1       -0.2496
     18 C          59.0993   90.2334    6.3912 C.3     1  UNL1        0.0770
     19 C          59.7332   89.0244    7.0129 C.3     1  UNL1        0.0468
     20 C          60.1558   89.0554    8.4519 C.ar    1  UNL1        0.0146
     21 C          59.8303   90.2463    9.3036 C.ar    1  UNL1       -0.0011
     22 C          60.2529   90.2773   10.7425 C.ar    1  UNL1        0.0014
     23 C          61.0010   89.1172   11.3296 C.ar    1  UNL1        0.0206
     24 C          61.3265   87.9262   10.4778 C.ar    1  UNL1        0.0989
     25 C          60.9038   87.8953    9.0390 C.ar    1  UNL1        0.1511
     26 O          61.2293   86.7043    8.1871 O.3     1  UNL1       -0.4678
     27 C          61.9774   85.5442    8.7742 C.3     1  UNL1        0.2515
     28 C          62.4000   85.5752   10.2132 C.ar    1  UNL1        0.1141
     29 C          63.1433   84.5872   11.0623 C.ar    1  UNL1        0.1663
     30 N          63.2773   85.1675   12.4390 N.ar    1  UNL1       -0.2134
     31 C          62.6167   86.5142   12.4406 C.ar    1  UNL1        0.1834
     32 N          62.0745   86.7662   11.0649 N.ar    1  UNL1       -0.2847
     33 C          63.6617   83.2530   10.6137 C.1     1  UNL1        0.1211
     34 N          64.1802   81.9188   10.1650 N.1     1  UNL1       -0.1892
@<TRIPOS>BOND
     1     7     8    1
     2     8     9   ar
     3     9    10   ar
     4    10    11   ar
     5    11    12   ar
     6    12     1    1
     7     1     2    1
     8     2     3    1
     9     3     4    1
    10     4    18    1
    11    18    19    1
    12    19    20    1
    13    20    21   ar
    14    21    22   ar
    15    22    23   ar
    16    23    24   ar
    17    24    25   ar
    18    25    26    1
    19    26    27    1
    20    27    28    1
    21    28    29   ar
    22    29    33    1
    23    33    34    3
    24    29    30   ar
    25    30    31   ar
    26    31    32   ar
    27     4     5    1
    28     5     6    1
    29    12    13   ar
    30    13    14   ar
    31    14    15   ar
    32    15    16   ar
    33    16    17   ar
    34    17     8   ar
    35    16    11   ar
    36     6     1    1
    37    25    20   ar
    38    32    28   ar
    39    32    24    1
