@<TRIPOS>MOLECULE
*****
 30 32 0 0 0
SMALL
GASTEIGER

@<TRIPOS>ATOM
      1 C          62.6813   85.3737   11.4874 C.ar    1  UNL1        0.1344
      2 C          62.8217   85.0445   10.0307 C.ar    1  UNL1        0.0310
      3 C          61.9419   85.7200    9.0210 C.ar    1  UNL1       -0.0067
      4 C          62.0823   85.3909    7.5643 C.3     1  UNL1        0.0319
      5 C          60.9216   86.7246    9.4680 C.ar    1  UNL1        0.0959
      6 C          60.7811   87.0537   10.9247 C.ar    1  UNL1        0.1393
      7 N          61.6610   86.3782   11.9343 N.ar    1  UNL1       -0.2154
      8 N          63.5612   84.6982   12.4971 N.pl3   1  UNL1       -0.2819
      9 H          64.4462   85.0741   12.7087 H       1  UNL1        0.1551
     10 C          62.0843   79.7073   13.3861 C.3     1  UNL1        0.0515
     11 C          62.4139   81.1559   13.5931 C.ar    1  UNL1        0.0548
     12 C          62.8854   82.1124   12.5382 C.ar    1  UNL1        0.0502
     13 C          63.0927   83.4500   13.1845 C.ar    1  UNL1        0.1539
     14 N          62.7493   83.3203   14.6389 N.ar    1  UNL1       -0.1577
     15 N          62.3297   81.9025   14.8915 N.ar    1  UNL1       -0.2786
     16 H          62.0485   81.5277   15.7574 H       1  UNL1        0.1886
     17 C          60.0417   87.4001    8.4582 C.1     1  UNL1        0.1029
     18 N          59.1618   88.0756    7.4485 N.1     1  UNL1       -0.1907
     19 N          59.7608   88.0583   11.3716 N.pl3   1  UNL1       -0.3145
     20 H          58.8583   87.7617   11.6299 H       1  UNL1        0.1483
     21 C          60.1156   89.5147   11.4251 C.3     1  UNL1        0.1362
     22 C          61.4956   89.9649   11.0469 C.3     1  UNL1        0.2266
     23 O          62.6118   89.8817   12.0456 O.3     1  UNL1       -0.4724
     24 C          63.6736   90.9408   12.0736 C.ar    1  UNL1        0.1521
     25 C          64.0791   91.6299   10.8044 C.ar    1  UNL1        0.0397
     26 C          65.1410   92.6890   10.8324 C.ar    1  UNL1        0.0238
     27 C          65.7973   93.0590   12.1295 C.ar    1  UNL1        0.0987
     28 N          65.3918   92.3698   13.3986 N.ar    1  UNL1       -0.2451
     29 C          64.3299   91.3107   13.3706 C.ar    1  UNL1        0.0932
     30 C          63.9244   90.6216   14.6398 C.3     1  UNL1        0.0553
@<TRIPOS>BOND
     1    10    11    1
     2    11    12   ar
     3    12    13   ar
     4    13     8    1
     5     8     1    1
     6     1     2   ar
     7     2     3   ar
     8     3     4    1
     9     3     5   ar
    10     5    17    1
    11    17    18    3
    12     5     6   ar
    13     6    19    1
    14    19    21    1
    15    21    22    1
    16    22    23    1
    17    23    24    1
    18    24    25   ar
    19    25    26   ar
    20    26    27   ar
    21    27    28   ar
    22    28    29   ar
    23    29    30    1
    24     6     7   ar
    25    13    14   ar
    26    14    15   ar
    27    15    11   ar
    28     7     1   ar
    29    29    24   ar
    30     8     9    1
    31    19    20    1
    32    15    16    1
@<TRIPOS>MOLECULE
*****
 30 32 0 0 0
SMALL
GASTEIGER

@<TRIPOS>ATOM
      1 C          61.5966   89.0196   11.3713 C.ar    1  UNL1        0.1344
      2 C          60.8156   89.4999   10.1842 C.ar    1  UNL1        0.0310
      3 C          60.4735   88.5480    9.0766 C.ar    1  UNL1       -0.0067
      4 C          59.6925   89.0283    7.8894 C.3     1  UNL1        0.0319
      5 C          60.9125   87.1159    9.1561 C.ar    1  UNL1        0.0959
      6 C          61.6935   86.6356   10.3432 C.ar    1  UNL1        0.1393
      7 N          62.0355   87.5875   11.4509 N.ar    1  UNL1       -0.2154
      8 N          61.9387   89.9715   12.4791 N.pl3   1  UNL1       -0.2819
      9 H          61.3566   90.0355   13.2704 H       1  UNL1        0.1551
     10 C          65.9292   92.8234   10.5238 C.3     1  UNL1        0.0515
     11 C          65.0019   92.1367   11.4822 C.ar    1  UNL1        0.0548
     12 C          63.7978   91.3218   11.1134 C.ar    1  UNL1        0.0502
     13 C          63.1677   90.8258   12.3810 C.ar    1  UNL1        0.1539
     14 N          63.9824   91.3341   13.5333 N.ar    1  UNL1       -0.1577
     15 N          65.1160   92.1443   12.9779 N.ar    1  UNL1       -0.2786
     16 H          65.8126   92.6009   13.5028 H       1  UNL1        0.1886
     17 C          60.5704   86.1640    8.0484 C.1     1  UNL1        0.1029
     18 N          60.2283   85.2122    6.9407 N.1     1  UNL1       -0.1907
     19 N          62.1324   85.2035   10.4227 N.pl3   1  UNL1       -0.3145
     20 H          61.6182   84.5603   10.9623 H       1  UNL1        0.1483
     21 C          63.3548   84.7514    9.6802 C.3     1  UNL1        0.1362
     22 C          63.9074   83.3763    9.9121 C.3     1  UNL1        0.2266
     23 O          64.4486   83.0031   11.2604 O.3     1  UNL1       -0.4724
     24 C          63.5265   82.4737   12.3185 C.ar    1  UNL1        0.1521
     25 C          63.0078   81.0692   12.2270 C.ar    1  UNL1        0.0397
     26 C          62.0857   80.5399   13.2851 C.ar    1  UNL1        0.0238
     27 C          61.6823   81.4151   14.4346 C.ar    1  UNL1        0.0987
     28 N          62.2010   82.8195   14.5260 N.ar    1  UNL1       -0.2451
     29 C          63.1231   83.3488   13.4679 C.ar    1  UNL1        0.0932
     30 C          63.6418   84.7534   13.5594 C.3     1  UNL1        0.0553
@<TRIPOS>BOND
     1    10    11    1
     2    11    12   ar
     3    12    13   ar
     4    13     8    1
     5     8     1    1
     6     1     2   ar
     7     2     3   ar
     8     3     4    1
     9     3     5   ar
    10     5    17    1
    11    17    18    3
    12     5     6   ar
    13     6    19    1
    14    19    21    1
    15    21    22    1
    16    22    23    1
    17    23    24    1
    18    24    25   ar
    19    25    26   ar
    20    26    27   ar
    21    27    28   ar
    22    28    29   ar
    23    29    30    1
    24     6     7   ar
    25    13    14   ar
    26    14    15   ar
    27    15    11   ar
    28     7     1   ar
    29    29    24   ar
    30     8     9    1
    31    19    20    1
    32    15    16    1
@<TRIPOS>MOLECULE
*****
 30 32 0 0 0
SMALL
GASTEIGER

@<TRIPOS>ATOM
      1 C          64.3915   90.6000   14.1963 C.ar    1  UNL1        0.1344
      2 C          63.8609   91.2258   12.9407 C.ar    1  UNL1        0.0310
      3 C          63.2408   90.3668   11.8788 C.ar    1  UNL1       -0.0067
      4 C          62.7101   90.9926   10.6230 C.3     1  UNL1        0.0319
      5 C          63.1514   88.8821   12.0725 C.ar    1  UNL1        0.0959
      6 C          63.6821   88.2563   13.3282 C.ar    1  UNL1        0.1393
      7 N          64.3021   89.1152   14.3901 N.ar    1  UNL1       -0.2154
      8 N          65.0116   91.4589   15.2583 N.pl3   1  UNL1       -0.2819
      9 H          64.4958   91.6967   16.0625 H       1  UNL1        0.1551
     10 C          69.5242   94.0969   16.0055 C.3     1  UNL1        0.0515
     11 C          68.4917   93.1681   15.4386 C.ar    1  UNL1        0.0548
     12 C          67.0994   92.9728   15.9612 C.ar    1  UNL1        0.0502
     13 C          66.4176   91.9555   15.0951 C.ar    1  UNL1        0.1539
     14 N          67.3885   91.5220   14.0372 N.ar    1  UNL1       -0.1577
     15 N          68.6705   92.2714   14.2494 N.ar    1  UNL1       -0.2786
     16 H          69.4860   92.1891   13.7040 H       1  UNL1        0.1886
     17 C          62.5314   88.0231   11.0105 C.1     1  UNL1        0.1029
     18 N          61.9114   87.1642    9.9485 N.1     1  UNL1       -0.1907
     19 N          63.5927   86.7715   13.5219 N.pl3   1  UNL1       -0.3145
     20 H          63.0147   86.2324   12.9350 H       1  UNL1        0.1483
     21 C          64.3840   86.1081   14.6098 C.3     1  UNL1        0.1362
     22 C          64.0318   84.7191   15.0532 C.3     1  UNL1        0.2266
     23 O          62.8855   83.9950   14.4113 O.3     1  UNL1       -0.4724
     24 C          63.1113   83.1852   13.1690 C.ar    1  UNL1        0.1521
     25 C          63.9568   83.7351   12.0586 C.ar    1  UNL1        0.0397
     26 C          64.1825   82.9253   10.8163 C.ar    1  UNL1        0.0238
     27 C          63.5629   81.5656   10.6845 C.ar    1  UNL1        0.0987
     28 N          62.7175   81.0158   11.7948 N.ar    1  UNL1       -0.2451
     29 C          62.4917   81.8256   13.0371 C.ar    1  UNL1        0.0932
     30 C          61.6462   81.2757   14.1475 C.3     1  UNL1        0.0553
@<TRIPOS>BOND
     1    10    11    1
     2    11    12   ar
     3    12    13   ar
     4    13     8    1
     5     8     1    1
     6     1     2   ar
     7     2     3   ar
     8     3     4    1
     9     3     5   ar
    10     5    17    1
    11    17    18    3
    12     5     6   ar
    13     6    19    1
    14    19    21    1
    15    21    22    1
    16    22    23    1
    17    23    24    1
    18    24    25   ar
    19    25    26   ar
    20    26    27   ar
    21    27    28   ar
    22    28    29   ar
    23    29    30    1
    24     6     7   ar
    25    13    14   ar
    26    14    15   ar
    27    15    11   ar
    28     7     1   ar
    29    29    24   ar
    30     8     9    1
    31    19    20    1
    32    15    16    1
@<TRIPOS>MOLECULE
*****
 30 32 0 0 0
SMALL
GASTEIGER

@<TRIPOS>ATOM
      1 C          61.9948   90.1974   11.1620 C.ar    1  UNL1        0.1344
      2 C          63.0428   91.0312   10.4865 C.ar    1  UNL1        0.0310
      3 C          64.1670   91.6170   11.2884 C.ar    1  UNL1       -0.0067
      4 C          65.2151   92.4509   10.6129 C.3     1  UNL1        0.0319
      5 C          64.2431   91.3690   12.7658 C.ar    1  UNL1        0.0959
      6 C          63.1950   90.5352   13.4413 C.ar    1  UNL1        0.1393
      7 N          62.0709   89.9494   12.6394 N.ar    1  UNL1       -0.2154
      8 N          60.8705   89.6116   10.3600 N.pl3   1  UNL1       -0.2819
      9 H          60.0277   90.1099   10.2568 H       1  UNL1        0.1551
     10 C          62.9990   85.1294    8.5545 C.3     1  UNL1        0.0515
     11 C          62.0088   86.2064    8.8855 C.ar    1  UNL1        0.0548
     12 C          62.3092   87.4914    9.5987 C.ar    1  UNL1        0.0502
     13 C          61.0305   88.2667    9.7155 C.ar    1  UNL1        0.1539
     14 N          59.9397   87.4608    9.0745 N.ar    1  UNL1       -0.1577
     15 N          60.5443   86.1875    8.5615 N.ar    1  UNL1       -0.2786
     16 H          60.0642   85.4661    8.0943 H       1  UNL1        0.1886
     17 C          65.3673   91.9548   13.5677 C.1     1  UNL1        0.1029
     18 N          66.4915   92.5406   14.3696 N.1     1  UNL1       -0.1907
     19 N          63.2712   90.2871   14.9187 N.pl3   1  UNL1       -0.3145
     20 H          62.9857   90.9861   15.5505 H       1  UNL1        0.1483
     21 C          63.7821   88.9741   15.4334 C.3     1  UNL1        0.1362
     22 C          64.3394   87.9600   14.4789 C.3     1  UNL1        0.2266
     23 O          64.8891   86.6644   14.9979 O.3     1  UNL1       -0.4724
     24 C          64.1188   85.3919   14.8046 C.ar    1  UNL1        0.1521
     25 C          64.3739   84.5364   13.5991 C.ar    1  UNL1        0.0397
     26 C          63.6036   83.2639   13.4059 C.ar    1  UNL1        0.0238
     27 C          62.5782   82.8469   14.4182 C.ar    1  UNL1        0.0987
     28 N          62.3231   83.7023   15.6236 N.ar    1  UNL1       -0.2451
     29 C          63.0934   84.9748   15.8168 C.ar    1  UNL1        0.0932
     30 C          62.8383   85.8303   17.0224 C.3     1  UNL1        0.0553
@<TRIPOS>BOND
     1    10    11    1
     2    11    12   ar
     3    12    13   ar
     4    13     8    1
     5     8     1    1
     6     1     2   ar
     7     2     3   ar
     8     3     4    1
     9     3     5   ar
    10     5    17    1
    11    17    18    3
    12     5     6   ar
    13     6    19    1
    14    19    21    1
    15    21    22    1
    16    22    23    1
    17    23    24    1
    18    24    25   ar
    19    25    26   ar
    20    26    27   ar
    21    27    28   ar
    22    28    29   ar
    23    29    30    1
    24     6     7   ar
    25    13    14   ar
    26    14    15   ar
    27    15    11   ar
    28     7     1   ar
    29    29    24   ar
    30     8     9    1
    31    19    20    1
    32    15    16    1
@<TRIPOS>MOLECULE
*****
 30 32 0 0 0
SMALL
GASTEIGER

@<TRIPOS>ATOM
      1 C          63.1223   84.9485   11.1895 C.ar    1  UNL1        0.1344
      2 C          62.7014   84.7410    9.7649 C.ar    1  UNL1        0.0310
      3 C          61.9397   85.8134    9.0441 C.ar    1  UNL1       -0.0067
      4 C          61.5187   85.6060    7.6194 C.3     1  UNL1        0.0319
      5 C          61.5989   87.0934    9.7480 C.ar    1  UNL1        0.0959
      6 C          62.0198   87.3009   11.1727 C.ar    1  UNL1        0.1393
      7 N          62.7816   86.2285   11.8934 N.ar    1  UNL1       -0.2154
      8 N          63.8841   83.8760   11.9104 N.pl3   1  UNL1       -0.2819
      9 H          64.8338   83.7219   11.7018 H       1  UNL1        0.1551
     10 C          60.7580   80.2989   14.2152 C.3     1  UNL1        0.0515
     11 C          61.7619   81.3941   14.0083 C.ar    1  UNL1        0.0548
     12 C          62.1774   81.9713   12.6877 C.ar    1  UNL1        0.0502
     13 C          63.1988   83.0383   12.9489 C.ar    1  UNL1        0.1539
     14 N          63.4146   83.1204   14.4310 N.ar    1  UNL1       -0.1577
     15 N          62.5266   82.1043   15.0858 N.ar    1  UNL1       -0.2786
     16 H          62.4577   81.9335   16.0530 H       1  UNL1        0.1886
     17 C          60.8372   88.1659    9.0272 C.1     1  UNL1        0.1029
     18 N          60.0755   89.2384    8.3064 N.1     1  UNL1       -0.1907
     19 N          61.6791   88.5809   11.8766 N.pl3   1  UNL1       -0.3145
     20 H          60.7870   88.7010   12.2754 H       1  UNL1        0.1483
     21 C          62.6974   89.6780   11.9728 C.3     1  UNL1        0.1362
     22 C          63.0839   90.2270   13.3142 C.3     1  UNL1        0.2266
     23 O          63.6917   91.5945   13.4181 O.3     1  UNL1       -0.4724
     24 C          65.1797   91.7472   13.5304 C.ar    1  UNL1        0.1521
     25 C          65.8813   91.3481   14.7948 C.ar    1  UNL1        0.0397
     26 C          67.3692   91.5008   14.9071 C.ar    1  UNL1        0.0238
     27 C          68.1556   92.0527   13.7551 C.ar    1  UNL1        0.0987
     28 N          67.4540   92.4519   12.4908 N.ar    1  UNL1       -0.2451
     29 C          65.9660   92.2991   12.3785 C.ar    1  UNL1        0.0932
     30 C          65.2644   92.6983   11.1141 C.3     1  UNL1        0.0553
@<TRIPOS>BOND
     1    10    11    1
     2    11    12   ar
     3    12    13   ar
     4    13     8    1
     5     8     1    1
     6     1     2   ar
     7     2     3   ar
     8     3     4    1
     9     3     5   ar
    10     5    17    1
    11    17    18    3
    12     5     6   ar
    13     6    19    1
    14    19    21    1
    15    21    22    1
    16    22    23    1
    17    23    24    1
    18    24    25   ar
    19    25    26   ar
    20    26    27   ar
    21    27    28   ar
    22    28    29   ar
    23    29    30    1
    24     6     7   ar
    25    13    14   ar
    26    14    15   ar
    27    15    11   ar
    28     7     1   ar
    29    29    24   ar
    30     8     9    1
    31    19    20    1
    32    15    16    1
@<TRIPOS>MOLECULE
*****
 30 32 0 0 0
SMALL
GASTEIGER

@<TRIPOS>ATOM
      1 C          62.7225   85.1164   11.3794 C.ar    1  UNL1        0.1344
      2 C          62.8731   84.8569    9.9098 C.ar    1  UNL1        0.0310
      3 C          62.0227   85.6036    8.9253 C.ar    1  UNL1       -0.0067
      4 C          62.1734   85.3441    7.4556 C.3     1  UNL1        0.0319
      5 C          61.0217   86.6099    9.4105 C.ar    1  UNL1        0.0959
      6 C          60.8711   86.8694   10.8802 C.ar    1  UNL1        0.1393
      7 N          61.7215   86.1227   11.8646 N.ar    1  UNL1       -0.2154
      8 N          63.5729   84.3697   12.3639 N.pl3   1  UNL1       -0.2819
      9 H          64.3397   83.8387   12.0488 H       1  UNL1        0.1551
     10 C          63.1846   86.0615   17.3507 C.3     1  UNL1        0.0515
     11 C          63.0766   85.2097   16.1207 C.ar    1  UNL1        0.0548
     12 C          63.5709   85.5716   14.7515 C.ar    1  UNL1        0.0502
     13 C          63.2551   84.4321   13.8285 C.ar    1  UNL1        0.1539
     14 N          62.5657   83.3660   14.6273 N.ar    1  UNL1       -0.1577
     15 N          62.4553   83.8465   16.0440 N.ar    1  UNL1       -0.2786
     16 H          62.0469   83.3538   16.7920 H       1  UNL1        0.1886
     17 C          60.1713   87.3566    8.4260 C.1     1  UNL1        0.1029
     18 N          59.3208   88.1032    7.4415 N.1     1  UNL1       -0.1907
     19 N          59.8700   87.8756   11.3653 N.pl3   1  UNL1       -0.3145
     20 H          58.9913   87.5769   11.6937 H       1  UNL1        0.1483
     21 C          60.2078   89.3370   11.3503 C.3     1  UNL1        0.1362
     22 C          61.6338   89.7787   11.4969 C.3     1  UNL1        0.2266
     23 O          62.3159   89.6815   12.8294 O.3     1  UNL1       -0.4724
     24 C          63.5742   90.4566   13.0861 C.ar    1  UNL1        0.1521
     25 C          64.0673   91.4440   12.0703 C.ar    1  UNL1        0.0397
     26 C          65.3256   92.2191   12.3270 C.ar    1  UNL1        0.0238
     27 C          66.0908   92.0068   13.5996 C.ar    1  UNL1        0.0987
     28 N          65.5977   91.0194   14.6154 N.ar    1  UNL1       -0.2451
     29 C          64.3394   90.2443   14.3587 C.ar    1  UNL1        0.0932
     30 C          63.8463   89.2569   15.3746 C.3     1  UNL1        0.0553
@<TRIPOS>BOND
     1    10    11    1
     2    11    12   ar
     3    12    13   ar
     4    13     8    1
     5     8     1    1
     6     1     2   ar
     7     2     3   ar
     8     3     4    1
     9     3     5   ar
    10     5    17    1
    11    17    18    3
    12     5     6   ar
    13     6    19    1
    14    19    21    1
    15    21    22    1
    16    22    23    1
    17    23    24    1
    18    24    25   ar
    19    25    26   ar
    20    26    27   ar
    21    27    28   ar
    22    28    29   ar
    23    29    30    1
    24     6     7   ar
    25    13    14   ar
    26    14    15   ar
    27    15    11   ar
    28     7     1   ar
    29    29    24   ar
    30     8     9    1
    31    19    20    1
    32    15    16    1
@<TRIPOS>MOLECULE
*****
 30 32 0 0 0
SMALL
GASTEIGER

@<TRIPOS>ATOM
      1 C          62.4034   85.8108    9.7339 C.ar    1  UNL1        0.1344
      2 C          61.3386   86.2555    8.7756 C.ar    1  UNL1        0.0310
      3 C          60.6039   87.5412    9.0148 C.ar    1  UNL1       -0.0067
      4 C          59.5390   87.9860    8.0565 C.3     1  UNL1        0.0319
      5 C          60.9340   88.3821   10.2123 C.ar    1  UNL1        0.0959
      6 C          61.9988   87.9373   11.1706 C.ar    1  UNL1        0.1393
      7 N          62.7335   86.6517   10.9314 N.ar    1  UNL1       -0.2154
      8 N          63.1382   84.5251    9.4947 N.pl3   1  UNL1       -0.2819
      9 H          63.3680   84.2528    8.5769 H       1  UNL1        0.1551
     10 C          62.9149   81.7430   13.9769 C.3     1  UNL1        0.0515
     11 C          63.4202   82.3754   12.7141 C.ar    1  UNL1        0.0548
     12 C          62.6252   83.2416   11.7825 C.ar    1  UNL1        0.0502
     13 C          63.5228   83.6542   10.6538 C.ar    1  UNL1        0.1539
     14 N          64.8726   83.0431   10.8878 N.ar    1  UNL1       -0.1577
     15 N          64.8091   82.2527   12.1611 N.ar    1  UNL1       -0.2786
     16 H          65.5492   81.7430   12.5633 H       1  UNL1        0.1886
     17 C          60.1992   89.6678   10.4515 C.1     1  UNL1        0.1029
     18 N          59.4645   90.9534   10.6906 N.1     1  UNL1       -0.1907
     19 N          62.3289   88.7782   12.3680 N.pl3   1  UNL1       -0.3145
     20 H          61.8609   88.6258   13.2207 H       1  UNL1        0.1483
     21 C          63.3720   89.8512   12.2665 C.3     1  UNL1        0.1362
     22 C          63.8066   90.5936   13.4954 C.3     1  UNL1        0.2266
     23 O          64.4569   91.9393   13.3680 O.3     1  UNL1       -0.4724
     24 C          65.7685   92.2056   14.0452 C.ar    1  UNL1        0.1521
     25 C          65.8382   92.2808   15.5418 C.ar    1  UNL1        0.0397
     26 C          67.1498   92.5470   16.2190 C.ar    1  UNL1        0.0238
     27 C          68.3918   92.7382   15.3998 C.ar    1  UNL1        0.0987
     28 N          68.3220   92.6630   13.9033 N.ar    1  UNL1       -0.2451
     29 C          67.0104   92.3967   13.2260 C.ar    1  UNL1        0.0932
     30 C          66.9407   92.3215   11.7295 C.3     1  UNL1        0.0553
@<TRIPOS>BOND
     1    10    11    1
     2    11    12   ar
     3    12    13   ar
     4    13     8    1
     5     8     1    1
     6     1     2   ar
     7     2     3   ar
     8     3     4    1
     9     3     5   ar
    10     5    17    1
    11    17    18    3
    12     5     6   ar
    13     6    19    1
    14    19    21    1
    15    21    22    1
    16    22    23    1
    17    23    24    1
    18    24    25   ar
    19    25    26   ar
    20    26    27   ar
    21    27    28   ar
    22    28    29   ar
    23    29    30    1
    24     6     7   ar
    25    13    14   ar
    26    14    15   ar
    27    15    11   ar
    28     7     1   ar
    29    29    24   ar
    30     8     9    1
    31    19    20    1
    32    15    16    1
@<TRIPOS>MOLECULE
*****
 30 32 0 0 0
SMALL
GASTEIGER

@<TRIPOS>ATOM
      1 C          63.8199   89.5969   14.8539 C.ar    1  UNL1        0.1344
      2 C          65.1435   90.3011   14.9009 C.ar    1  UNL1        0.0310
      3 C          65.5317   91.2424   13.7995 C.ar    1  UNL1       -0.0067
      4 C          66.8554   91.9466   13.8465 C.3     1  UNL1        0.0319
      5 C          64.5964   91.4796   12.6511 C.ar    1  UNL1        0.0959
      6 C          63.2728   90.7754   12.6041 C.ar    1  UNL1        0.1393
      7 N          62.8846   89.8341   13.7055 N.ar    1  UNL1       -0.2154
      8 N          63.4317   88.6555   15.9553 N.pl3   1  UNL1       -0.2819
      9 H          63.1078   89.0102   16.8147 H       1  UNL1        0.1551
     10 C          64.8934   83.9379   14.0878 C.3     1  UNL1        0.0515
     11 C          64.2087   85.0053   14.8889 C.ar    1  UNL1        0.0548
     12 C          64.4239   86.4837   14.7540 C.ar    1  UNL1        0.0502
     13 C          63.5368   87.1738   15.7474 C.ar    1  UNL1        0.1539
     14 N          62.7734   86.1220   16.4963 N.ar    1  UNL1       -0.1577
     15 N          63.1886   84.7818   15.9657 N.ar    1  UNL1       -0.2786
     16 H          62.8509   83.9087   16.2707 H       1  UNL1        0.1886
     17 C          64.9847   92.4210   11.5496 C.1     1  UNL1        0.1029
     18 N          65.3729   93.3624   10.4483 N.1     1  UNL1       -0.1907
     19 N          62.3374   91.0126   11.4557 N.pl3   1  UNL1       -0.3145
     20 H          62.2386   91.9173   11.0800 H       1  UNL1        0.1483
     21 C          61.5526   89.8715   10.8796 C.3     1  UNL1        0.1362
     22 C          62.2671   88.7039   10.2662 C.3     1  UNL1        0.2266
     23 O          61.6545   87.3358   10.3228 O.3     1  UNL1       -0.4724
     24 C          61.6365   86.4709    9.0974 C.ar    1  UNL1        0.1521
     25 C          62.8624   85.7008    8.7048 C.ar    1  UNL1        0.0397
     26 C          62.8444   84.8359    7.4794 C.ar    1  UNL1        0.0238
     27 C          61.6003   84.7411    6.6466 C.ar    1  UNL1        0.0987
     28 N          60.3745   85.5112    7.0392 N.ar    1  UNL1       -0.2451
     29 C          60.3925   86.3761    8.2646 C.ar    1  UNL1        0.0932
     30 C          59.1666   87.1462    8.6572 C.3     1  UNL1        0.0553
@<TRIPOS>BOND
     1    10    11    1
     2    11    12   ar
     3    12    13   ar
     4    13     8    1
     5     8     1    1
     6     1     2   ar
     7     2     3   ar
     8     3     4    1
     9     3     5   ar
    10     5    17    1
    11    17    18    3
    12     5     6   ar
    13     6    19    1
    14    19    21    1
    15    21    22    1
    16    22    23    1
    17    23    24    1
    18    24    25   ar
    19    25    26   ar
    20    26    27   ar
    21    27    28   ar
    22    28    29   ar
    23    29    30    1
    24     6     7   ar
    25    13    14   ar
    26    14    15   ar
    27    15    11   ar
    28     7     1   ar
    29    29    24   ar
    30     8     9    1
    31    19    20    1
    32    15    16    1
@<TRIPOS>MOLECULE
*****
 30 32 0 0 0
SMALL
GASTEIGER

@<TRIPOS>ATOM
      1 C          63.3694   85.7416   12.6577 C.ar    1  UNL1        0.1344
      2 C          62.5488   85.3819   11.4548 C.ar    1  UNL1        0.0310
      3 C          61.8433   86.4552   10.6800 C.ar    1  UNL1       -0.0067
      4 C          61.0226   86.0955    9.4770 C.3     1  UNL1        0.0319
      5 C          61.9586   87.8881   11.1081 C.ar    1  UNL1        0.0959
      6 C          62.7792   88.2478   12.3110 C.ar    1  UNL1        0.1393
      7 N          63.4847   87.1746   13.0858 N.ar    1  UNL1       -0.2154
      8 N          64.0749   84.6683   13.4326 N.pl3   1  UNL1       -0.2819
      9 H          64.9978   84.8117   13.7440 H       1  UNL1        0.1551
     10 C          62.3359   79.6960   13.0686 C.3     1  UNL1        0.0515
     11 C          62.5750   81.0909   13.5656 C.ar    1  UNL1        0.0548
     12 C          63.4136   82.1357   12.8909 C.ar    1  UNL1        0.0502
     13 C          63.3743   83.3764   13.7329 C.ar    1  UNL1        0.1539
     14 N          62.5115   83.0985   14.9281 N.ar    1  UNL1       -0.1577
     15 N          62.0174   81.6860   14.8247 N.ar    1  UNL1       -0.2786
     16 H          61.4304   81.2296   15.4699 H       1  UNL1        0.1886
     17 C          61.2531   88.9614   10.3332 C.1     1  UNL1        0.1029
     18 N          60.5476   90.0347    9.5583 N.1     1  UNL1       -0.1907
     19 N          62.8945   89.6808   12.7391 N.pl3   1  UNL1       -0.3145
     20 H          62.8221   90.4012   12.0720 H       1  UNL1        0.1483
     21 C          63.1199   90.0162   14.1836 C.3     1  UNL1        0.1362
     22 C          64.4076   90.6543   14.6133 C.3     1  UNL1        0.2266
     23 O          64.7605   92.0302   14.1309 O.3     1  UNL1       -0.4724
     24 C          65.6184   92.2006   12.9123 C.ar    1  UNL1        0.1521
     25 C          64.9840   92.4729   11.5806 C.ar    1  UNL1        0.0397
     26 C          65.8419   92.6433   10.3620 C.ar    1  UNL1        0.0238
     27 C          67.3342   92.5415   10.4752 C.ar    1  UNL1        0.0987
     28 N          67.9685   92.2692   11.8069 N.ar    1  UNL1       -0.2451
     29 C          67.1106   92.0988   13.0255 C.ar    1  UNL1        0.0932
     30 C          67.7450   91.8265   14.3572 C.3     1  UNL1        0.0553
@<TRIPOS>BOND
     1    10    11    1
     2    11    12   ar
     3    12    13   ar
     4    13     8    1
     5     8     1    1
     6     1     2   ar
     7     2     3   ar
     8     3     4    1
     9     3     5   ar
    10     5    17    1
    11    17    18    3
    12     5     6   ar
    13     6    19    1
    14    19    21    1
    15    21    22    1
    16    22    23    1
    17    23    24    1
    18    24    25   ar
    19    25    26   ar
    20    26    27   ar
    21    27    28   ar
    22    28    29   ar
    23    29    30    1
    24     6     7   ar
    25    13    14   ar
    26    14    15   ar
    27    15    11   ar
    28     7     1   ar
    29    29    24   ar
    30     8     9    1
    31    19    20    1
    32    15    16    1
