@<TRIPOS>MOLECULE
*****
 28 31 0 0 0
SMALL
GASTEIGER

@<TRIPOS>ATOM
      1 C          64.2958   90.1236   15.1936 C.3     1  UNL1        0.0122
      2 C          64.9858   91.1353   14.3274 C.3     1  UNL1        0.0568
      3 S          66.0772   91.9915   14.8981 S.3     1  UNL1       -0.0816
      4 C          66.7672   93.0032   14.0319 C.2     1  UNL1        0.1482
      5 N          67.8587   93.8594   14.6027 N.pl3   1  UNL1       -0.3380
      6 N          66.3659   93.1588   12.5950 N.2     1  UNL1       -0.2484
      7 C          65.2744   92.3026   12.0243 C.3     1  UNL1        0.1351
      8 C          64.8730   92.4581   10.5874 C.3     1  UNL1        0.1690
      9 O          63.7816   91.6019   10.0167 O.3     1  UNL1       -0.3494
     10 C          63.0916   90.5902   10.8829 C.3     1  UNL1        0.1406
     11 C          63.4929   90.4346   12.3198 C.3     1  UNL1        0.0374
     12 C          64.5844   91.2908   12.8905 C.3     1  UNL1        0.0402
     13 H          68.1222   93.7573   15.5458 H       1  UNL1        0.1442
     14 H          68.3116   94.5234   14.0342 H       1  UNL1        0.1442
     15 C          65.9644   93.3143   11.1581 C.ar    1  UNL1        0.0278
     16 C          65.4454   94.7199   11.0878 C.ar    1  UNL1        0.0021
     17 C          66.1355   95.7317   10.2216 C.ar    1  UNL1        0.0295
     18 C          67.3444   95.3378    9.4257 C.ar    1  UNL1        0.1424
     19 F          68.0345   96.3495    8.5596 F       1  UNL1       -0.2041
     20 C          67.8633   93.9322    9.4961 C.ar    1  UNL1        0.0590
     21 C          67.1733   92.9204   10.3623 C.ar    1  UNL1        0.1402
     22 F          67.6922   91.5148   10.4327 F       1  UNL1       -0.2044
     23 C          62.0001   89.7340   10.3121 C.ar    1  UNL1        0.0442
     24 C          60.5823   90.1590   10.0688 C.ar    1  UNL1        0.1197
     25 N          59.8407   88.9902    9.4908 N.ar    1  UNL1       -0.1679
     26 N          60.8003   87.8429    9.3769 N.ar    1  UNL1       -0.2476
     27 C          60.4813   86.4758    8.8483 C.3     1  UNL1        0.1537
     28 C          62.1348   88.3026    9.8846 C.ar    1  UNL1        0.0947
@<TRIPOS>BOND
     1     2     1    1
     2     2     3    1
     3     3     4    1
     4     4     5    1
     5     4     6    2
     6     6     7    1
     7     7    15    1
     8    15    16   ar
     9    16    17   ar
    10    17    18   ar
    11    18    19    1
    12    18    20   ar
    13    20    21   ar
    14    21    22    1
    15     7     8    1
    16     8     9    1
    17     9    10    1
    18    10    23    1
    19    23    24   ar
    20    24    25   ar
    21    25    26   ar
    22    26    27    1
    23    26    28   ar
    24    10    11    1
    25    12    11    1
    26    12     2    1
    27    12     7    1
    28    21    15   ar
    29    28    23   ar
    30     5    13    1
    31     5    14    1
@<TRIPOS>MOLECULE
*****
 28 31 0 0 0
SMALL
GASTEIGER

@<TRIPOS>ATOM
      1 C          66.0165   92.4431   15.7642 C.3     1  UNL1        0.0122
      2 C          64.9524   91.6343   15.0832 C.3     1  UNL1        0.0568
      3 S          64.0328   90.7703   15.8942 S.3     1  UNL1       -0.0816
      4 C          62.9688   89.9615   15.2132 C.2     1  UNL1        0.1482
      5 N          62.0491   89.0975   16.0243 N.pl3   1  UNL1       -0.3380
      6 N          62.8244   90.0168   13.7212 N.2     1  UNL1       -0.2484
      7 C          63.7440   90.8809   12.9102 C.3     1  UNL1        0.1351
      8 C          63.5996   90.9361   11.4182 C.3     1  UNL1        0.1690
      9 O          64.5192   91.8002   10.6072 O.3     1  UNL1       -0.3494
     10 C          65.5833   92.6089   11.2882 C.3     1  UNL1        0.1406
     11 C          65.7277   92.5536   12.7802 C.3     1  UNL1        0.0374
     12 C          64.8080   91.6896   13.5912 C.3     1  UNL1        0.0402
     13 H          62.1439   89.0612   17.0035 H       1  UNL1        0.1442
     14 H          61.3508   88.5667   15.5773 H       1  UNL1        0.1442
     15 C          62.6800   90.0721   12.2292 C.ar    1  UNL1        0.0278
     16 C          61.4646   90.7508   11.6702 C.ar    1  UNL1        0.0021
     17 C          60.4006   89.9420   10.9892 C.ar    1  UNL1        0.0295
     18 C          60.5519   88.4546   10.8671 C.ar    1  UNL1        0.1424
     19 F          59.4879   87.6459   10.1861 F       1  UNL1       -0.2041
     20 C          61.7672   87.7761   11.4261 C.ar    1  UNL1        0.0590
     21 C          62.8313   88.5848   12.1071 C.ar    1  UNL1        0.1402
     22 F          64.0466   87.9062   12.6661 F       1  UNL1       -0.2044
     23 C          66.5029   93.4730   10.4772 C.ar    1  UNL1        0.0442
     24 C          67.8400   93.0679    9.9310 C.ar    1  UNL1        0.1197
     25 N          68.4104   94.2383    9.1862 N.ar    1  UNL1       -0.1679
     26 N          67.4258   95.3667    9.2720 N.ar    1  UNL1       -0.2476
     27 C          67.5912   96.7290    8.6663 C.3     1  UNL1        0.1537
     28 C          66.2470   94.8937   10.0699 C.ar    1  UNL1        0.0947
@<TRIPOS>BOND
     1     2     1    1
     2     2     3    1
     3     3     4    1
     4     4     5    1
     5     4     6    2
     6     6     7    1
     7     7    15    1
     8    15    16   ar
     9    16    17   ar
    10    17    18   ar
    11    18    19    1
    12    18    20   ar
    13    20    21   ar
    14    21    22    1
    15     7     8    1
    16     8     9    1
    17     9    10    1
    18    10    23    1
    19    23    24   ar
    20    24    25   ar
    21    25    26   ar
    22    26    27    1
    23    26    28   ar
    24    10    11    1
    25    12    11    1
    26    12     2    1
    27    12     7    1
    28    21    15   ar
    29    28    23   ar
    30     5    13    1
    31     5    14    1
@<TRIPOS>MOLECULE
*****
 28 31 0 0 0
SMALL
GASTEIGER

@<TRIPOS>ATOM
      1 C          63.4311   89.7894   12.7744 C.3     1  UNL1        0.0122
      2 C          63.5607   88.3334   13.1111 C.3     1  UNL1        0.0568
      3 S          64.3656   87.9081   14.3032 S.3     1  UNL1       -0.0816
      4 C          64.4952   86.4521   14.6399 C.2     1  UNL1        0.1482
      5 N          65.3002   86.0268   15.8321 N.pl3   1  UNL1       -0.3380
      6 N          63.8199   85.4215   13.7846 N.2     1  UNL1       -0.2484
      7 C          63.0149   85.8468   12.5924 C.3     1  UNL1        0.1351
      8 C          62.3395   84.8162   11.7371 C.3     1  UNL1        0.1690
      9 O          61.5346   85.2415   10.5450 O.3     1  UNL1       -0.3494
     10 C          61.4050   86.6975   10.2083 C.3     1  UNL1        0.1406
     11 C          62.0803   87.7281   11.0636 C.3     1  UNL1        0.0374
     12 C          62.8853   87.3028   12.2557 C.3     1  UNL1        0.0402
     13 H          65.7435   86.7033   16.3935 H       1  UNL1        0.1442
     14 H          65.3853   85.0712   16.0531 H       1  UNL1        0.1442
     15 C          63.1445   84.3908   12.9292 C.ar    1  UNL1        0.0278
     16 C          64.0819   83.5204   12.1457 C.ar    1  UNL1        0.0021
     17 C          64.2115   82.0645   12.4825 C.ar    1  UNL1        0.0295
     18 C          63.4037   81.4789   13.6026 C.ar    1  UNL1        0.1424
     19 F          63.5333   80.0230   13.9393 F       1  UNL1       -0.2041
     20 C          62.4663   82.3493   14.3860 C.ar    1  UNL1        0.0590
     21 C          62.3367   83.8053   14.0492 C.ar    1  UNL1        0.1402
     22 F          61.3994   84.6757   14.8326 F       1  UNL1       -0.2044
     23 C          60.6000   87.1228    9.0161 C.ar    1  UNL1        0.0442
     24 C          59.8824   86.2106    8.0658 C.ar    1  UNL1        0.1197
     25 N          59.2101   87.0589    7.0274 N.ar    1  UNL1       -0.1679
     26 N          59.5122   88.4954    7.3359 N.ar    1  UNL1       -0.2476
     27 C          59.0386   89.6839    6.5527 C.3     1  UNL1        0.1537
     28 C          60.3712   88.5349    8.5650 C.ar    1  UNL1        0.0947
@<TRIPOS>BOND
     1     2     1    1
     2     2     3    1
     3     3     4    1
     4     4     5    1
     5     4     6    2
     6     6     7    1
     7     7    15    1
     8    15    16   ar
     9    16    17   ar
    10    17    18   ar
    11    18    19    1
    12    18    20   ar
    13    20    21   ar
    14    21    22    1
    15     7     8    1
    16     8     9    1
    17     9    10    1
    18    10    23    1
    19    23    24   ar
    20    24    25   ar
    21    25    26   ar
    22    26    27    1
    23    26    28   ar
    24    10    11    1
    25    12    11    1
    26    12     2    1
    27    12     7    1
    28    21    15   ar
    29    28    23   ar
    30     5    13    1
    31     5    14    1
@<TRIPOS>MOLECULE
*****
 28 31 0 0 0
SMALL
GASTEIGER

@<TRIPOS>ATOM
      1 C          60.0297   90.3822    9.7067 C.3     1  UNL1        0.0122
      2 C          60.4852   88.9531    9.6961 C.3     1  UNL1        0.0568
      3 S          59.9235   87.9943    8.6886 S.3     1  UNL1       -0.0816
      4 C          60.3790   86.5652    8.6780 C.2     1  UNL1        0.1482
      5 N          59.8173   85.6064    7.6704 N.pl3   1  UNL1       -0.3380
      6 N          61.3962   86.0949    9.6750 N.2     1  UNL1       -0.2484
      7 C          61.9580   87.0537   10.6827 C.3     1  UNL1        0.1351
      8 C          62.9752   86.5833   11.6797 C.3     1  UNL1        0.1690
      9 O          63.5369   87.5421   12.6872 O.3     1  UNL1       -0.3494
     10 C          63.0813   88.9712   12.6978 C.3     1  UNL1        0.1406
     11 C          62.0641   89.4416   11.7008 C.3     1  UNL1        0.0374
     12 C          61.5025   88.4828   10.6932 C.3     1  UNL1        0.0402
     13 H          59.1497   85.9151    7.0161 H       1  UNL1        0.1442
     14 H          60.1163   84.6684    7.6635 H       1  UNL1        0.1442
     15 C          62.4135   85.6245   10.6721 C.ar    1  UNL1        0.0278
     16 C          62.0675   84.7186   11.8166 C.ar    1  UNL1        0.0021
     17 C          62.5231   83.2895   11.8060 C.ar    1  UNL1        0.0295
     18 C          63.3245   82.7663   10.6510 C.ar    1  UNL1        0.1424
     19 F          63.7801   81.3372   10.6405 F       1  UNL1       -0.2041
     20 C          63.6705   83.6722    9.5066 C.ar    1  UNL1        0.0590
     21 C          63.2149   85.1013    9.5172 C.ar    1  UNL1        0.1402
     22 F          63.5609   86.0072    8.3728 F       1  UNL1       -0.2044
     23 C          63.6431   89.9300   13.7054 C.ar    1  UNL1        0.0442
     24 C          63.1266   90.1502   15.0964 C.ar    1  UNL1        0.1197
     25 N          63.9842   91.1932   15.7496 N.ar    1  UNL1       -0.1679
     26 N          65.0307   91.6177   14.7623 N.ar    1  UNL1       -0.2476
     27 C          66.1002   92.6428   14.9971 C.3     1  UNL1        0.1537
     28 C          64.8198   90.8370   13.4989 C.ar    1  UNL1        0.0947
@<TRIPOS>BOND
     1     2     1    1
     2     2     3    1
     3     3     4    1
     4     4     5    1
     5     4     6    2
     6     6     7    1
     7     7    15    1
     8    15    16   ar
     9    16    17   ar
    10    17    18   ar
    11    18    19    1
    12    18    20   ar
    13    20    21   ar
    14    21    22    1
    15     7     8    1
    16     8     9    1
    17     9    10    1
    18    10    23    1
    19    23    24   ar
    20    24    25   ar
    21    25    26   ar
    22    26    27    1
    23    26    28   ar
    24    10    11    1
    25    12    11    1
    26    12     2    1
    27    12     7    1
    28    21    15   ar
    29    28    23   ar
    30     5    13    1
    31     5    14    1
@<TRIPOS>MOLECULE
*****
 28 31 0 0 0
SMALL
GASTEIGER

@<TRIPOS>ATOM
      1 C          64.2368   88.0436   14.5068 C.3     1  UNL1        0.0122
      2 C          64.0990   86.5911   14.1587 C.3     1  UNL1        0.0568
      3 S          64.7367   85.5478   15.0274 S.3     1  UNL1       -0.0816
      4 C          64.5990   84.0953   14.6792 C.2     1  UNL1        0.1482
      5 N          65.2367   83.0520   15.5481 N.pl3   1  UNL1       -0.3380
      6 N          63.8235   83.6861   13.4623 N.2     1  UNL1       -0.2484
      7 C          63.1857   84.7294   12.5934 C.3     1  UNL1        0.1351
      8 C          62.4102   84.3202   11.3764 C.3     1  UNL1        0.1690
      9 O          61.7725   85.3635   10.5076 O.3     1  UNL1       -0.3494
     10 C          61.9103   86.8160   10.8558 C.3     1  UNL1        0.1406
     11 C          62.6858   87.2252   12.0728 C.3     1  UNL1        0.0374
     12 C          63.3235   86.1819   12.9416 C.3     1  UNL1        0.0402
     13 H          65.7457   83.3206   16.3469 H       1  UNL1        0.1442
     14 H          65.1463   82.0987   15.3196 H       1  UNL1        0.1442
     15 C          63.0479   83.2769   12.2452 C.ar    1  UNL1        0.0278
     16 C          62.1799   82.3842   13.0817 C.ar    1  UNL1        0.0021
     17 C          62.0422   80.9317   12.7335 C.ar    1  UNL1        0.0295
     18 C          62.7724   80.3719   11.5488 C.ar    1  UNL1        0.1424
     19 F          62.6346   78.9194   11.2006 F       1  UNL1       -0.2041
     20 C          63.6403   81.2646   10.7124 C.ar    1  UNL1        0.0590
     21 C          63.7781   82.7171   11.0605 C.ar    1  UNL1        0.1402
     22 F          64.6461   83.6098   10.2241 F       1  UNL1       -0.2044
     23 C          61.2725   87.8593    9.9869 C.ar    1  UNL1        0.0442
     24 C          61.2942   89.3398   10.2267 C.ar    1  UNL1        0.1197
     25 N          60.5362   90.0008    9.1138 N.ar    1  UNL1       -0.1679
     26 N          60.0461   88.9287    8.1862 N.ar    1  UNL1       -0.2476
     27 C          59.2421   89.1425    6.9380 C.3     1  UNL1        0.1537
     28 C          60.5012   87.6052    8.7258 C.ar    1  UNL1        0.0947
@<TRIPOS>BOND
     1     2     1    1
     2     2     3    1
     3     3     4    1
     4     4     5    1
     5     4     6    2
     6     6     7    1
     7     7    15    1
     8    15    16   ar
     9    16    17   ar
    10    17    18   ar
    11    18    19    1
    12    18    20   ar
    13    20    21   ar
    14    21    22    1
    15     7     8    1
    16     8     9    1
    17     9    10    1
    18    10    23    1
    19    23    24   ar
    20    24    25   ar
    21    25    26   ar
    22    26    27    1
    23    26    28   ar
    24    10    11    1
    25    12    11    1
    26    12     2    1
    27    12     7    1
    28    21    15   ar
    29    28    23   ar
    30     5    13    1
    31     5    14    1
@<TRIPOS>MOLECULE
*****
 28 31 0 0 0
SMALL
GASTEIGER

@<TRIPOS>ATOM
      1 C          64.5935   84.9300   15.6798 C.3     1  UNL1        0.0122
      2 C          63.9050   84.9228   14.3472 C.3     1  UNL1        0.0568
      3 S          63.4462   83.6270   13.7470 S.3     1  UNL1       -0.0816
      4 C          62.7577   83.6198   12.4144 C.2     1  UNL1        0.1482
      5 N          62.2989   82.3239   11.8142 N.pl3   1  UNL1       -0.3380
      6 N          62.5279   84.9085   11.6820 N.2     1  UNL1       -0.2484
      7 C          62.9867   86.2044   12.2822 C.3     1  UNL1        0.1351
      8 C          62.7570   87.4931   11.5497 C.3     1  UNL1        0.1690
      9 O          63.2158   88.7889   12.1499 O.3     1  UNL1       -0.3494
     10 C          63.9043   88.7961   13.4825 C.3     1  UNL1        0.1406
     11 C          64.1341   87.5074   14.2150 C.3     1  UNL1        0.0374
     12 C          63.6753   86.2116   13.6148 C.3     1  UNL1        0.0402
     13 H          62.4497   81.4781   12.2950 H       1  UNL1        0.1442
     14 H          61.8470   82.3192   10.9396 H       1  UNL1        0.1442
     15 C          62.2982   86.1973   10.9495 C.ar    1  UNL1        0.0278
     16 C          62.9875   85.6126    9.7524 C.ar    1  UNL1        0.0021
     17 C          62.2989   85.6054    8.4197 C.ar    1  UNL1        0.0295
     18 C          60.9211   86.1829    8.2843 C.ar    1  UNL1        0.1424
     19 F          60.2326   86.1757    6.9517 F       1  UNL1       -0.2041
     20 C          60.2320   86.7676    9.4814 C.ar    1  UNL1        0.0590
     21 C          60.9205   86.7747   10.8141 C.ar    1  UNL1        0.1402
     22 F          60.2313   87.3594   12.0112 F       1  UNL1       -0.2044
     23 C          64.3631   90.0920   14.0827 C.ar    1  UNL1        0.0442
     24 C          63.8844   90.6833   15.3755 C.ar    1  UNL1        0.1197
     25 N          64.6066   91.9809   15.5872 N.ar    1  UNL1       -0.1679
     26 N          65.5316   92.1915   14.4253 N.ar    1  UNL1       -0.2476
     27 C          66.4465   93.3637   14.2279 C.3     1  UNL1        0.1537
     28 C          65.3812   91.0241   13.4955 C.ar    1  UNL1        0.0947
@<TRIPOS>BOND
     1     2     1    1
     2     2     3    1
     3     3     4    1
     4     4     5    1
     5     4     6    2
     6     6     7    1
     7     7    15    1
     8    15    16   ar
     9    16    17   ar
    10    17    18   ar
    11    18    19    1
    12    18    20   ar
    13    20    21   ar
    14    21    22    1
    15     7     8    1
    16     8     9    1
    17     9    10    1
    18    10    23    1
    19    23    24   ar
    20    24    25   ar
    21    25    26   ar
    22    26    27    1
    23    26    28   ar
    24    10    11    1
    25    12    11    1
    26    12     2    1
    27    12     7    1
    28    21    15   ar
    29    28    23   ar
    30     5    13    1
    31     5    14    1
