@<TRIPOS>MOLECULE
*****
 36 39 0 0 0
SMALL
GASTEIGER

@<TRIPOS>ATOM
      1 C          64.6023   90.6225   14.1237 C.ar    1  UNL1        0.0757
      2 C          64.6230   89.2748   13.4654 C.ar    1  UNL1        0.0181
      3 C          64.1503   88.0657   14.2168 C.ar    1  UNL1        0.0161
      4 C          63.6569   88.2043   15.6266 C.ar    1  UNL1        0.0528
      5 C          63.6362   89.5520   16.2848 C.ar    1  UNL1        0.0456
      6 C          64.1089   90.7610   15.5334 C.ar    1  UNL1        0.1545
      7 F          64.0882   92.1088   16.1917 F       1  UNL1       -0.2028
      8 C          66.0205   94.2497   11.8693 C.3     1  UNL1        0.0609
      9 C          66.4667   94.0237   13.2834 C.3     1  UNL1        0.0374
     10 C          65.9940   92.8146   14.0349 C.3     1  UNL1        0.0922
     11 N          65.0750   91.8316   13.3722 N.pl3   1  UNL1       -0.3057
     12 C          64.6288   92.0576   11.9581 C.3     1  UNL1        0.0922
     13 C          65.1015   93.2667   11.2067 C.3     1  UNL1        0.0374
     14 N          66.4932   95.4588   11.1179 N.3     1  UNL1       -0.2727
     15 C          66.0113   96.8232   11.5130 C.3     1  UNL1        0.0896
     16 C          67.4477   95.3035    9.9713 C.3     1  UNL1        0.0721
     17 C          67.2684   94.1807    8.9929 C.3     1  UNL1        0.0173
     18 C          68.3205   92.0188    9.9775 C.3     1  UNL1        0.0000
     19 C          68.2857   93.0808    8.9188 C.3     1  UNL1        0.0014
     20 N          63.1842   86.9952   16.3780 N.pl3   1  UNL1       -0.2825
     21 H          63.0189   87.0514   17.3469 H       1  UNL1        0.1551
     22 C          62.9633   85.7007   15.6532 C.ar    1  UNL1        0.2207
     23 N          62.5913   84.4660   16.4196 N.ar    1  UNL1       -0.2123
     24 C          62.3705   83.1715   15.6949 C.ar    1  UNL1        0.0990
     25 C          62.5216   83.1115   14.2037 C.ar    1  UNL1        0.0152
     26 C          62.3008   81.8168   13.4790 C.3     1  UNL1        0.0342
     27 C          62.8936   84.3460   13.4373 C.ar    1  UNL1        0.0847
     28 N          63.1145   85.6407   14.1621 N.ar    1  UNL1       -0.2138
     29 C          63.0448   84.2861   11.9462 C.ar    1  UNL1        0.0571
     30 C          63.9811   83.3906   11.1902 C.ar    1  UNL1        0.1231
     31 N          63.8011   83.6621    9.7260 N.ar    1  UNL1       -0.1677
     32 N          62.7536   84.7254    9.5770 N.ar    1  UNL1       -0.2513
     33 C          62.2862   85.1110   10.9492 C.ar    1  UNL1        0.0980
     34 C          62.2601   85.3018    8.2831 C.3     1  UNL1        0.1054
     35 C          62.7694   84.7628    6.9793 C.3     1  UNL1        0.0263
     36 C          61.2574   86.4173    8.2932 C.3     1  UNL1        0.0263
@<TRIPOS>BOND
     1    18    19    1
     2    19    17    1
     3    17    16    1
     4    16    14    1
     5    14    15    1
     6    14     8    1
     7     8     9    1
     8     9    10    1
     9    10    11    1
    10    11     1    1
    11     1     2   ar
    12     2     3   ar
    13     3     4   ar
    14     4    20    1
    15    20    22    1
    16    22    23   ar
    17    23    24   ar
    18    24    25   ar
    19    25    26    1
    20    25    27   ar
    21    27    29    1
    22    29    30   ar
    23    30    31   ar
    24    31    32   ar
    25    32    34    1
    26    34    35    1
    27    34    36    1
    28    32    33   ar
    29    27    28   ar
    30     4     5   ar
    31     5     6   ar
    32     6     7    1
    33    11    12    1
    34    12    13    1
    35    13     8    1
    36     6     1   ar
    37    28    22   ar
    38    33    29   ar
    39    20    21    1
@<TRIPOS>MOLECULE
*****
 36 39 0 0 0
SMALL
GASTEIGER

@<TRIPOS>ATOM
      1 C          60.3026   92.2816    3.4907 C.ar    1  UNL1        0.0757
      2 C          58.8330   92.3608    3.7802 C.ar    1  UNL1        0.0181
      3 C          58.2288   91.4864    4.8387 C.ar    1  UNL1        0.0161
      4 C          59.0944   90.5328    5.6078 C.ar    1  UNL1        0.0528
      5 C          60.5640   90.4537    5.3183 C.ar    1  UNL1        0.0456
      6 C          61.1681   91.3281    4.2598 C.ar    1  UNL1        0.1545
      7 F          62.6379   91.2489    3.9704 F       1  UNL1       -0.2028
      8 C          62.1150   94.9048    0.3152 C.3     1  UNL1        0.0609
      9 C          62.5397   93.4713    0.4362 C.3     1  UNL1        0.0374
     10 C          61.9356   92.5969    1.4947 C.3     1  UNL1        0.0922
     11 N          60.9067   93.1560    2.4322 N.pl3   1  UNL1       -0.3057
     12 C          60.4820   94.5895    2.3111 C.3     1  UNL1        0.0922
     13 C          61.0861   95.4639    1.2526 C.3     1  UNL1        0.0374
     14 N          62.7191   95.7792   -0.7434 N.3     1  UNL1       -0.2727
     15 C          62.3498   95.5780   -2.1832 C.3     1  UNL1        0.0896
     16 C          63.6925   96.8548   -0.3621 C.3     1  UNL1        0.0721
     17 C          65.0161   96.4889    0.2414 C.3     1  UNL1        0.0173
     18 C          64.9944   95.8708    2.7648 C.3     1  UNL1        0.0000
     19 C          65.3135   96.8434    1.6683 C.3     1  UNL1        0.0014
     20 N          58.4903   89.6584    6.6663 N.pl3   1  UNL1       -0.2825
     21 H          57.5120   89.6103    6.7657 H       1  UNL1        0.1551
     22 C          59.3766   88.8574    7.5733 C.ar    1  UNL1        0.2207
     23 N          59.4515   87.3667    7.4239 N.ar    1  UNL1       -0.2123
     24 C          60.3379   86.5656    8.3309 C.ar    1  UNL1        0.0990
     25 C          61.1494   87.2552    9.3872 C.ar    1  UNL1        0.0152
     26 C          62.0358   86.4541   10.2942 C.3     1  UNL1        0.0342
     27 C          61.0746   88.7459    9.5366 C.ar    1  UNL1        0.0847
     28 N          60.1882   89.5470    8.6296 N.ar    1  UNL1       -0.2138
     29 C          61.8861   89.4355   10.5929 C.ar    1  UNL1        0.0571
     30 C          61.6895   89.3144   12.0751 C.ar    1  UNL1        0.1231
     31 N          62.7186   90.1713   12.7508 N.ar    1  UNL1       -0.1677
     32 N          63.5513   90.8221   11.6863 N.ar    1  UNL1       -0.2513
     33 C          63.0368   90.3673   10.3527 C.ar    1  UNL1        0.0980
     34 C          64.6973   91.7625   11.9151 C.3     1  UNL1        0.1054
     35 C          65.2927   91.8997   13.2849 C.3     1  UNL1        0.0263
     36 C          65.2477   92.5655   10.7740 C.3     1  UNL1        0.0263
@<TRIPOS>BOND
     1    18    19    1
     2    19    17    1
     3    17    16    1
     4    16    14    1
     5    14    15    1
     6    14     8    1
     7     8     9    1
     8     9    10    1
     9    10    11    1
    10    11     1    1
    11     1     2   ar
    12     2     3   ar
    13     3     4   ar
    14     4    20    1
    15    20    22    1
    16    22    23   ar
    17    23    24   ar
    18    24    25   ar
    19    25    26    1
    20    25    27   ar
    21    27    29    1
    22    29    30   ar
    23    30    31   ar
    24    31    32   ar
    25    32    34    1
    26    34    35    1
    27    34    36    1
    28    32    33   ar
    29    27    28   ar
    30     4     5   ar
    31     5     6   ar
    32     6     7    1
    33    11    12    1
    34    12    13    1
    35    13     8    1
    36     6     1   ar
    37    28    22   ar
    38    33    29   ar
    39    20    21    1
@<TRIPOS>MOLECULE
*****
 36 39 0 0 0
SMALL
GASTEIGER

@<TRIPOS>ATOM
      1 C          60.0115   92.1599    3.6748 C.ar    1  UNL1        0.0757
      2 C          58.5506   92.1567    4.0148 C.ar    1  UNL1        0.0181
      3 C          58.0285   91.2288    5.0714 C.ar    1  UNL1        0.0161
      4 C          58.9673   90.3041    5.7880 C.ar    1  UNL1        0.0528
      5 C          60.4282   90.3073    5.4480 C.ar    1  UNL1        0.0456
      6 C          60.9503   91.2352    4.3914 C.ar    1  UNL1        0.1545
      7 F          62.4113   91.2383    4.0513 F       1  UNL1       -0.2028
      8 C          61.5779   94.9435    0.5049 C.3     1  UNL1        0.0609
      9 C          60.8237   95.4928    1.6794 C.3     1  UNL1        0.0374
     10 C          60.3016   94.5650    2.7360 C.3     1  UNL1        0.0922
     11 N          60.5336   93.0877    2.6182 N.pl3   1  UNL1       -0.3057
     12 C          61.2878   92.5384    1.4437 C.3     1  UNL1        0.0922
     13 C          61.8099   93.4663    0.3871 C.3     1  UNL1        0.0374
     14 N          62.1000   95.8714   -0.5517 N.3     1  UNL1       -0.2727
     15 C          61.1993   96.3275   -1.6610 C.3     1  UNL1        0.0896
     16 C          63.5229   96.3431   -0.4990 C.3     1  UNL1        0.0721
     17 C          64.5140   95.8516   -1.5119 C.3     1  UNL1        0.0173
     18 C          65.1125   95.8440   -4.0402 C.3     1  UNL1        0.0000
     19 C          64.6896   96.5869   -2.8076 C.3     1  UNL1        0.0014
     20 N          58.4451   89.3762    6.8446 N.pl3   1  UNL1       -0.2825
     21 H          57.4757   89.3017    6.9989 H       1  UNL1        0.1551
     22 C          59.4001   88.5619    7.6661 C.ar    1  UNL1        0.2207
     23 N          59.4699   87.0750    7.4805 N.ar    1  UNL1       -0.2123
     24 C          60.4249   86.2607    8.3020 C.ar    1  UNL1        0.0990
     25 C          61.3100   86.9332    9.3091 C.ar    1  UNL1        0.0152
     26 C          62.2650   86.1187   10.1306 C.3     1  UNL1        0.0342
     27 C          61.2402   88.4200    9.4948 C.ar    1  UNL1        0.0847
     28 N          60.2852   89.2344    8.6732 N.ar    1  UNL1       -0.2138
     29 C          62.1254   89.0924   10.5019 C.ar    1  UNL1        0.0571
     30 C          62.7210   90.4633   10.3762 C.ar    1  UNL1        0.1231
     31 N          63.5341   90.7303   11.6082 N.ar    1  UNL1       -0.1677
     32 N          63.4409   89.5243   12.4953 N.ar    1  UNL1       -0.2513
     33 C          62.5703   88.5121   11.8115 C.ar    1  UNL1        0.0980
     34 C          64.1023   89.3594   13.8315 C.3     1  UNL1        0.1054
     35 C          64.2594   87.9917   14.4269 C.3     1  UNL1        0.0263
     36 C          64.6065   90.5624   14.5722 C.3     1  UNL1        0.0263
@<TRIPOS>BOND
     1    18    19    1
     2    19    17    1
     3    17    16    1
     4    16    14    1
     5    14    15    1
     6    14     8    1
     7     8     9    1
     8     9    10    1
     9    10    11    1
    10    11     1    1
    11     1     2   ar
    12     2     3   ar
    13     3     4   ar
    14     4    20    1
    15    20    22    1
    16    22    23   ar
    17    23    24   ar
    18    24    25   ar
    19    25    26    1
    20    25    27   ar
    21    27    29    1
    22    29    30   ar
    23    30    31   ar
    24    31    32   ar
    25    32    34    1
    26    34    35    1
    27    34    36    1
    28    32    33   ar
    29    27    28   ar
    30     4     5   ar
    31     5     6   ar
    32     6     7    1
    33    11    12    1
    34    12    13    1
    35    13     8    1
    36     6     1   ar
    37    28    22   ar
    38    33    29   ar
    39    20    21    1
@<TRIPOS>MOLECULE
*****
 36 39 0 0 0
SMALL
GASTEIGER

@<TRIPOS>ATOM
      1 C          59.8764   92.0782    3.7851 C.ar    1  UNL1        0.0757
      2 C          58.4640   91.9555    4.2751 C.ar    1  UNL1        0.0181
      3 C          58.1323   90.9887    5.3729 C.ar    1  UNL1        0.0161
      4 C          59.2129   90.1446    5.9808 C.ar    1  UNL1        0.0528
      5 C          60.6253   90.2672    5.4908 C.ar    1  UNL1        0.0456
      6 C          60.9570   91.2340    4.3930 C.ar    1  UNL1        0.1545
      7 F          62.3695   91.3567    3.9031 F       1  UNL1       -0.2028
      8 C          60.8715   94.9786    0.4916 C.3     1  UNL1        0.0609
      9 C          60.5255   95.4872    1.8597 C.3     1  UNL1        0.0374
     10 C          60.1938   94.5204    2.9575 C.3     1  UNL1        0.0922
     11 N          60.2081   93.0450    2.6873 N.pl3   1  UNL1       -0.3057
     12 C          60.5541   92.5365    1.3192 C.3     1  UNL1        0.0922
     13 C          60.8858   93.5033    0.2214 C.3     1  UNL1        0.0374
     14 N          61.2032   95.9454   -0.6062 N.3     1  UNL1       -0.2727
     15 C          60.1115   96.5000   -1.4724 C.3     1  UNL1        0.0896
     16 C          62.6267   96.3576   -0.8378 C.3     1  UNL1        0.0721
     17 C          63.6241   95.3581   -1.3439 C.3     1  UNL1        0.0173
     18 C          64.5019   94.3594    0.8882 C.3     1  UNL1        0.0000
     19 C          64.7683   94.9329   -0.4720 C.3     1  UNL1        0.0014
     20 N          58.8812   89.1777    7.0786 N.pl3   1  UNL1       -0.2825
     21 H          58.0384   88.6698    7.0492 H       1  UNL1        0.1551
     22 C          59.8337   88.9848    8.2212 C.ar    1  UNL1        0.2207
     23 N          60.0703   90.0994    9.1968 N.ar    1  UNL1       -0.2123
     24 C          61.0227   89.9064   10.3394 C.ar    1  UNL1        0.0990
     25 C          61.7386   88.5989   10.5065 C.ar    1  UNL1        0.0152
     26 C          62.6911   88.4060   11.6492 C.3     1  UNL1        0.0342
     27 C          61.5020   87.4843    9.5310 C.ar    1  UNL1        0.0847
     28 N          60.5495   87.6773    8.3883 N.ar    1  UNL1       -0.2138
     29 C          62.2179   86.1768    9.6980 C.ar    1  UNL1        0.0571
     30 C          62.9664   85.4385    8.6282 C.ar    1  UNL1        0.1231
     31 N          63.5221   84.1834    9.2332 N.ar    1  UNL1       -0.1677
     32 N          63.1169   84.1460   10.6770 N.ar    1  UNL1       -0.2513
     33 C          62.3109   85.3780   10.9642 C.ar    1  UNL1        0.0980
     34 C          63.4579   83.0663   11.6608 C.3     1  UNL1        0.1054
     35 C          64.2617   83.3930   12.8843 C.3     1  UNL1        0.0263
     36 C          62.9950   81.6598   11.4209 C.3     1  UNL1        0.0263
@<TRIPOS>BOND
     1    18    19    1
     2    19    17    1
     3    17    16    1
     4    16    14    1
     5    14    15    1
     6    14     8    1
     7     8     9    1
     8     9    10    1
     9    10    11    1
    10    11     1    1
    11     1     2   ar
    12     2     3   ar
    13     3     4   ar
    14     4    20    1
    15    20    22    1
    16    22    23   ar
    17    23    24   ar
    18    24    25   ar
    19    25    26    1
    20    25    27   ar
    21    27    29    1
    22    29    30   ar
    23    30    31   ar
    24    31    32   ar
    25    32    34    1
    26    34    35    1
    27    34    36    1
    28    32    33   ar
    29    27    28   ar
    30     4     5   ar
    31     5     6   ar
    32     6     7    1
    33    11    12    1
    34    12    13    1
    35    13     8    1
    36     6     1   ar
    37    28    22   ar
    38    33    29   ar
    39    20    21    1
@<TRIPOS>MOLECULE
*****
 36 39 0 0 0
SMALL
GASTEIGER

@<TRIPOS>ATOM
      1 C          59.6807   92.0492    3.8457 C.ar    1  UNL1        0.0757
      2 C          58.2809   91.8662    4.3528 C.ar    1  UNL1        0.0181
      3 C          58.0019   90.8753    5.4437 C.ar    1  UNL1        0.0161
      4 C          59.1227   90.0673    6.0276 C.ar    1  UNL1        0.0528
      5 C          60.5225   90.2502    5.5206 C.ar    1  UNL1        0.0456
      6 C          60.8015   91.2412    4.4297 C.ar    1  UNL1        0.1545
      7 F          62.2013   91.4241    3.9226 F       1  UNL1       -0.2028
      8 C          60.5178   95.0220    0.5729 C.3     1  UNL1        0.0609
      9 C          60.3571   93.5678    0.2421 C.3     1  UNL1        0.0374
     10 C          60.0781   92.5769    1.3331 C.3     1  UNL1        0.0922
     11 N          59.9597   93.0401    2.7548 N.pl3   1  UNL1       -0.3057
     12 C          60.1204   94.4943    3.0856 C.3     1  UNL1        0.0922
     13 C          60.3994   95.4853    1.9946 C.3     1  UNL1        0.0374
     14 N          60.7968   96.0130   -0.5180 N.3     1  UNL1       -0.2727
     15 C          62.2112   96.3012   -0.9257 C.3     1  UNL1        0.0896
     16 C          59.6614   96.7158   -1.2013 C.3     1  UNL1        0.0721
     17 C          58.2478   96.4417   -0.7807 C.3     1  UNL1        0.0173
     18 C          58.0097   94.4927   -2.4821 C.3     1  UNL1        0.0000
     19 C          57.3823   95.5355   -1.6052 C.3     1  UNL1        0.0014
     20 N          58.8437   89.0763    7.1186 N.pl3   1  UNL1       -0.2825
     21 H          58.0221   88.5345    7.0931 H       1  UNL1        0.1551
     22 C          59.8164   88.9109    8.2483 C.ar    1  UNL1        0.2207
     23 N          60.0704   90.0488    9.1921 N.ar    1  UNL1       -0.2123
     24 C          61.0432   89.8833   10.3218 C.ar    1  UNL1        0.0990
     25 C          61.7620   88.5800   10.5078 C.ar    1  UNL1        0.0152
     26 C          62.7348   88.4146   11.6376 C.3     1  UNL1        0.0342
     27 C          61.5081   87.4421    9.5641 C.ar    1  UNL1        0.0847
     28 N          60.5353   87.6075    8.4343 N.ar    1  UNL1       -0.2138
     29 C          62.2269   86.1388    9.7500 C.ar    1  UNL1        0.0571
     30 C          63.0024   85.4017    8.6987 C.ar    1  UNL1        0.1231
     31 N          63.5513   84.1511    9.3189 N.ar    1  UNL1       -0.1677
     32 N          63.1150   84.1152   10.7536 N.ar    1  UNL1       -0.2513
     33 C          62.2965   85.3436   11.0200 C.ar    1  UNL1        0.0980
     34 C          63.4401   83.0396   11.7473 C.3     1  UNL1        0.1054
     35 C          62.9261   81.6460   11.5392 C.3     1  UNL1        0.0263
     36 C          64.2792   83.3580   12.9492 C.3     1  UNL1        0.0263
@<TRIPOS>BOND
     1    18    19    1
     2    19    17    1
     3    17    16    1
     4    16    14    1
     5    14    15    1
     6    14     8    1
     7     8     9    1
     8     9    10    1
     9    10    11    1
    10    11     1    1
    11     1     2   ar
    12     2     3   ar
    13     3     4   ar
    14     4    20    1
    15    20    22    1
    16    22    23   ar
    17    23    24   ar
    18    24    25   ar
    19    25    26    1
    20    25    27   ar
    21    27    29    1
    22    29    30   ar
    23    30    31   ar
    24    31    32   ar
    25    32    34    1
    26    34    35    1
    27    34    36    1
    28    32    33   ar
    29    27    28   ar
    30     4     5   ar
    31     5     6   ar
    32     6     7    1
    33    11    12    1
    34    12    13    1
    35    13     8    1
    36     6     1   ar
    37    28    22   ar
    38    33    29   ar
    39    20    21    1
@<TRIPOS>MOLECULE
*****
 36 39 0 0 0
SMALL
GASTEIGER

@<TRIPOS>ATOM
      1 C          63.4866   86.7882   14.0189 C.ar    1  UNL1        0.0757
      2 C          63.6488   86.9316   15.5032 C.ar    1  UNL1        0.0181
      3 C          63.7097   88.2963   16.1226 C.ar    1  UNL1        0.0161
      4 C          63.6083   89.5177   15.2578 C.ar    1  UNL1        0.0528
      5 C          63.4461   89.3743   13.7735 C.ar    1  UNL1        0.0456
      6 C          63.3853   88.0095   13.1541 C.ar    1  UNL1        0.1545
      7 F          63.2231   87.8662   11.6697 F       1  UNL1       -0.2028
      8 C          63.3042   82.6939   12.1606 C.3     1  UNL1        0.0609
      9 C          64.2602   82.9657   13.2840 C.3     1  UNL1        0.0374
     10 C          64.3210   84.3304   13.9034 C.3     1  UNL1        0.0922
     11 N          63.4258   85.4234   13.3995 N.pl3   1  UNL1       -0.3057
     12 C          62.4698   85.1516   12.2760 C.3     1  UNL1        0.0922
     13 C          62.4090   83.7868   11.6566 C.3     1  UNL1        0.0374
     14 N          63.2433   81.3291   11.5411 N.3     1  UNL1       -0.2727
     15 C          63.6551   81.1351   10.1119 C.3     1  UNL1        0.0896
     16 C          62.7707   80.1583   12.3509 C.3     1  UNL1        0.0721
     17 C          62.3880   80.3466   13.7890 C.3     1  UNL1        0.0173
     18 C          59.8163   80.3711   14.1581 C.3     1  UNL1        0.0000
     19 C          61.1330   81.0895   14.1400 C.3     1  UNL1        0.0014
     20 N          63.6691   90.8825   15.8772 N.pl3   1  UNL1       -0.2825
     21 H          62.9176   91.2094   16.4227 H       1  UNL1        0.1551
     22 C          64.8750   91.7491   15.6656 C.ar    1  UNL1        0.2207
     23 N          65.8059   92.0308   16.8077 N.ar    1  UNL1       -0.2123
     24 C          67.0118   92.8974   16.5961 C.ar    1  UNL1        0.0990
     25 C          67.2868   93.4823   15.2425 C.ar    1  UNL1        0.0152
     26 C          68.4928   94.3490   15.0310 C.3     1  UNL1        0.0342
     27 C          66.3560   93.2006   14.1005 C.ar    1  UNL1        0.0847
     28 N          65.1501   92.3340   14.3121 N.ar    1  UNL1       -0.2138
     29 C          66.6311   93.7856   12.7469 C.ar    1  UNL1        0.0571
     30 C          66.3983   95.2098   12.3380 C.ar    1  UNL1        0.1231
     31 N          66.8106   95.3535   10.9030 N.ar    1  UNL1       -0.1677
     32 N          67.2983   94.0179   10.4249 N.ar    1  UNL1       -0.2513
     33 C          67.1873   93.0489   11.5646 C.ar    1  UNL1        0.0980
     34 C          67.8074   93.7061    9.0489 C.3     1  UNL1        0.1054
     35 C          68.5829   92.4458    8.8039 C.3     1  UNL1        0.0263
     36 C          67.5410   94.6547    7.9179 C.3     1  UNL1        0.0263
@<TRIPOS>BOND
     1    18    19    1
     2    19    17    1
     3    17    16    1
     4    16    14    1
     5    14    15    1
     6    14     8    1
     7     8     9    1
     8     9    10    1
     9    10    11    1
    10    11     1    1
    11     1     2   ar
    12     2     3   ar
    13     3     4   ar
    14     4    20    1
    15    20    22    1
    16    22    23   ar
    17    23    24   ar
    18    24    25   ar
    19    25    26    1
    20    25    27   ar
    21    27    29    1
    22    29    30   ar
    23    30    31   ar
    24    31    32   ar
    25    32    34    1
    26    34    35    1
    27    34    36    1
    28    32    33   ar
    29    27    28   ar
    30     4     5   ar
    31     5     6   ar
    32     6     7    1
    33    11    12    1
    34    12    13    1
    35    13     8    1
    36     6     1   ar
    37    28    22   ar
    38    33    29   ar
    39    20    21    1
@<TRIPOS>MOLECULE
*****
 36 39 0 0 0
SMALL
GASTEIGER

@<TRIPOS>ATOM
      1 C          60.7905   87.7658    8.7854 C.ar    1  UNL1        0.0757
      2 C          61.0067   89.2349    8.9968 C.ar    1  UNL1        0.0181
      3 C          60.4432   90.2241    8.0200 C.ar    1  UNL1        0.0161
      4 C          59.6635   89.7441    6.8319 C.ar    1  UNL1        0.0528
      5 C          59.4473   88.2749    6.6206 C.ar    1  UNL1        0.0456
      6 C          60.0108   87.2858    7.5973 C.ar    1  UNL1        0.1545
      7 F          59.7945   85.8165    7.3859 F       1  UNL1       -0.2028
      8 C          62.4808   84.7983   11.7157 C.3     1  UNL1        0.0609
      9 C          61.5720   85.8911   12.1949 C.3     1  UNL1        0.0374
     10 C          61.0085   86.8802   11.2182 C.3     1  UNL1        0.0922
     11 N          61.3539   86.7766    9.7622 N.pl3   1  UNL1       -0.3057
     12 C          62.2628   85.6838    9.2830 C.3     1  UNL1        0.0922
     13 C          62.8262   84.6946   10.2597 C.3     1  UNL1        0.0374
     14 N          63.0443   83.8091   12.6925 N.3     1  UNL1       -0.2727
     15 C          62.9935   84.0958   14.1639 C.3     1  UNL1        0.0896
     16 C          63.6585   82.5332   12.1978 C.3     1  UNL1        0.0721
     17 C          62.8036   81.3166   12.0001 C.3     1  UNL1        0.0173
     18 C          61.1759   80.9152   13.9849 C.3     1  UNL1        0.0000
     19 C          62.3745   80.5011   13.1837 C.3     1  UNL1        0.0014
     20 N          59.1001   90.7333    5.8551 N.pl3   1  UNL1       -0.2825
     21 H          58.1555   91.0036    5.9179 H       1  UNL1        0.1551
     22 C          59.9758   91.3105    4.7828 C.ar    1  UNL1        0.2207
     23 N          61.4383   90.9790    4.7496 N.ar    1  UNL1       -0.2123
     24 C          62.3140   91.5563    3.6773 C.ar    1  UNL1        0.0990
     25 C          61.7272   92.4651    2.6382 C.ar    1  UNL1        0.0152
     26 C          62.6030   93.0424    1.5658 C.3     1  UNL1        0.0342
     27 C          60.2647   92.7966    2.6714 C.ar    1  UNL1        0.0847
     28 N          59.3889   92.2193    3.7437 N.ar    1  UNL1       -0.2138
     29 C          59.6779   93.7054    1.6323 C.ar    1  UNL1        0.0571
     30 C          59.8852   95.1881    1.5392 C.ar    1  UNL1        0.1231
     31 N          59.1162   95.6902    0.3532 N.ar    1  UNL1       -0.1677
     32 N          58.4335   94.5178   -0.2867 N.ar    1  UNL1       -0.2513
     33 C          58.7807   93.2912    0.5038 C.ar    1  UNL1        0.0980
     34 C          57.5575   94.5639   -1.5034 C.3     1  UNL1        0.1054
     35 C          57.9395   95.4254   -2.6703 C.3     1  UNL1        0.0263
     36 C          56.2996   93.7483   -1.5531 C.3     1  UNL1        0.0263
@<TRIPOS>BOND
     1    18    19    1
     2    19    17    1
     3    17    16    1
     4    16    14    1
     5    14    15    1
     6    14     8    1
     7     8     9    1
     8     9    10    1
     9    10    11    1
    10    11     1    1
    11     1     2   ar
    12     2     3   ar
    13     3     4   ar
    14     4    20    1
    15    20    22    1
    16    22    23   ar
    17    23    24   ar
    18    24    25   ar
    19    25    26    1
    20    25    27   ar
    21    27    29    1
    22    29    30   ar
    23    30    31   ar
    24    31    32   ar
    25    32    34    1
    26    34    35    1
    27    34    36    1
    28    32    33   ar
    29    27    28   ar
    30     4     5   ar
    31     5     6   ar
    32     6     7    1
    33    11    12    1
    34    12    13    1
    35    13     8    1
    36     6     1   ar
    37    28    22   ar
    38    33    29   ar
    39    20    21    1
@<TRIPOS>MOLECULE
*****
 36 39 0 0 0
SMALL
GASTEIGER

@<TRIPOS>ATOM
      1 C          63.3548   86.6104   15.0253 C.ar    1  UNL1        0.0757
      2 C          63.1543   86.9630   16.4694 C.ar    1  UNL1        0.0181
      3 C          63.2409   88.3938   16.9111 C.ar    1  UNL1        0.0161
      4 C          63.5281   89.4721   15.9088 C.ar    1  UNL1        0.0528
      5 C          63.7286   89.1195   14.4647 C.ar    1  UNL1        0.0456
      6 C          63.6419   87.6887   14.0230 C.ar    1  UNL1        0.1545
      7 F          63.8424   87.3361   12.5788 F       1  UNL1       -0.2028
      8 C          63.0948   82.3178   13.7001 C.3     1  UNL1        0.0609
      9 C          64.3356   83.1141   13.4241 C.3     1  UNL1        0.0374
     10 C          64.4223   84.5450   13.8658 C.3     1  UNL1        0.0922
     11 N          63.2681   85.1795   14.5836 N.pl3   1  UNL1       -0.3057
     12 C          62.0273   84.3832   14.8596 C.3     1  UNL1        0.0922
     13 C          61.9407   82.9524   14.4179 C.3     1  UNL1        0.0374
     14 N          63.0082   80.8869   13.2584 N.3     1  UNL1       -0.2727
     15 C          62.5022   79.8391   14.2050 C.3     1  UNL1        0.0896
     16 C          63.4275   80.5039   11.8701 C.3     1  UNL1        0.0721
     17 C          63.0556   81.3751   10.7071 C.3     1  UNL1        0.0173
     18 C          63.6667   83.7851    9.9532 C.3     1  UNL1        0.0000
     19 C          64.0517   82.3489   10.1507 C.3     1  UNL1        0.0014
     20 N          63.6147   90.9030   16.3505 N.pl3   1  UNL1       -0.2825
     21 H          62.8786   91.3043   16.8665 H       1  UNL1        0.1551
     22 C          64.8229   91.7224   16.0060 C.ar    1  UNL1        0.2207
     23 N          65.7473   92.1888   17.0915 N.ar    1  UNL1       -0.2123
     24 C          66.9555   93.0082   16.7471 C.ar    1  UNL1        0.0990
     25 C          67.2395   93.3613   15.3172 C.ar    1  UNL1        0.0152
     26 C          68.4478   94.1807   14.9727 C.3     1  UNL1        0.0342
     27 C          66.3153   92.8949   14.2317 C.ar    1  UNL1        0.0847
     28 N          65.1070   92.0755   14.5761 N.ar    1  UNL1       -0.2138
     29 C          66.5993   93.2480   12.8018 C.ar    1  UNL1        0.0571
     30 C          67.3017   92.3783   11.8016 C.ar    1  UNL1        0.1231
     31 N          67.3673   93.1256   10.5027 N.ar    1  UNL1       -0.1677
     32 N          66.7054   94.4571   10.7000 N.ar    1  UNL1       -0.2513
     33 C          66.2307   94.5327   12.1209 C.ar    1  UNL1        0.0980
     34 C          66.5461   95.5254    9.6592 C.3     1  UNL1        0.1054
     35 C          67.4324   95.5318    8.4492 C.3     1  UNL1        0.0263
     36 C          65.5003   96.5874    9.8285 C.3     1  UNL1        0.0263
@<TRIPOS>BOND
     1    18    19    1
     2    19    17    1
     3    17    16    1
     4    16    14    1
     5    14    15    1
     6    14     8    1
     7     8     9    1
     8     9    10    1
     9    10    11    1
    10    11     1    1
    11     1     2   ar
    12     2     3   ar
    13     3     4   ar
    14     4    20    1
    15    20    22    1
    16    22    23   ar
    17    23    24   ar
    18    24    25   ar
    19    25    26    1
    20    25    27   ar
    21    27    29    1
    22    29    30   ar
    23    30    31   ar
    24    31    32   ar
    25    32    34    1
    26    34    35    1
    27    34    36    1
    28    32    33   ar
    29    27    28   ar
    30     4     5   ar
    31     5     6   ar
    32     6     7    1
    33    11    12    1
    34    12    13    1
    35    13     8    1
    36     6     1   ar
    37    28    22   ar
    38    33    29   ar
    39    20    21    1
@<TRIPOS>MOLECULE
*****
 36 39 0 0 0
SMALL
GASTEIGER

@<TRIPOS>ATOM
      1 C          60.7960   87.7554    8.7625 C.ar    1  UNL1        0.0757
      2 C          59.9917   87.3018    7.5804 C.ar    1  UNL1        0.0181
      3 C          59.4345   88.3110    6.6206 C.ar    1  UNL1        0.0161
      4 C          59.6817   89.7736    6.8429 C.ar    1  UNL1        0.0528
      5 C          60.4860   90.2272    8.0249 C.ar    1  UNL1        0.0456
      6 C          61.0432   89.2180    8.9847 C.ar    1  UNL1        0.1545
      7 F          61.8476   89.6717   10.1668 F       1  UNL1       -0.2028
      8 C          62.4676   84.7280   11.6419 C.3     1  UNL1        0.0609
      9 C          62.8151   84.6489   10.1848 C.3     1  UNL1        0.0374
     10 C          62.2579   85.6580    9.2250 C.3     1  UNL1        0.0922
     11 N          61.3532   86.7462    9.7223 N.pl3   1  UNL1       -0.3057
     12 C          61.0057   86.8253   11.1793 C.3     1  UNL1        0.0922
     13 C          61.5629   85.8162   12.1391 C.3     1  UNL1        0.0374
     14 N          63.0248   83.7189   12.6016 N.3     1  UNL1       -0.2727
     15 C          63.2785   82.3120   12.1474 C.3     1  UNL1        0.0896
     16 C          63.3283   84.1166   14.0157 C.3     1  UNL1        0.0721
     17 C          64.4967   85.0103   14.3092 C.3     1  UNL1        0.0173
     18 C          64.4154   87.5869   14.6327 C.3     1  UNL1        0.0000
     19 C          64.3232   86.2025   15.2028 C.3     1  UNL1        0.0014
     20 N          59.1245   90.7828    5.8831 N.pl3   1  UNL1       -0.2825
     21 H          58.1890   91.0777    5.9670 H       1  UNL1        0.1551
     22 C          59.9926   91.3425    4.7954 C.ar    1  UNL1        0.2207
     23 N          61.4485   90.9855    4.7395 N.ar    1  UNL1       -0.2123
     24 C          62.3167   91.5452    3.6518 C.ar    1  UNL1        0.0990
     25 C          61.7290   92.4619    2.6201 C.ar    1  UNL1        0.0152
     26 C          62.5972   93.0216    1.5324 C.3     1  UNL1        0.0342
     27 C          60.2732   92.8188    2.6761 C.ar    1  UNL1        0.0847
     28 N          59.4050   92.2591    3.7638 N.ar    1  UNL1       -0.2138
     29 C          59.6856   93.7355    1.6444 C.ar    1  UNL1        0.0571
     30 C          59.9400   95.2091    1.5268 C.ar    1  UNL1        0.1231
     31 N          59.1520   95.7239    0.3589 N.ar    1  UNL1       -0.1677
     32 N          58.4105   94.5684   -0.2454 N.ar    1  UNL1       -0.2513
     33 C          58.7403   93.3396    0.5491 C.ar    1  UNL1        0.0980
     34 C          57.4993   94.6308   -1.4353 C.3     1  UNL1        0.1054
     35 C          56.4360   93.5893   -1.6211 C.3     1  UNL1        0.0263
     36 C          57.6515   95.7348   -2.4393 C.3     1  UNL1        0.0263
@<TRIPOS>BOND
     1    18    19    1
     2    19    17    1
     3    17    16    1
     4    16    14    1
     5    14    15    1
     6    14     8    1
     7     8     9    1
     8     9    10    1
     9    10    11    1
    10    11     1    1
    11     1     2   ar
    12     2     3   ar
    13     3     4   ar
    14     4    20    1
    15    20    22    1
    16    22    23   ar
    17    23    24   ar
    18    24    25   ar
    19    25    26    1
    20    25    27   ar
    21    27    29    1
    22    29    30   ar
    23    30    31   ar
    24    31    32   ar
    25    32    34    1
    26    34    35    1
    27    34    36    1
    28    32    33   ar
    29    27    28   ar
    30     4     5   ar
    31     5     6   ar
    32     6     7    1
    33    11    12    1
    34    12    13    1
    35    13     8    1
    36     6     1   ar
    37    28    22   ar
    38    33    29   ar
    39    20    21    1
