@<TRIPOS>MOLECULE
*****
 43 48 0 0 0
SMALL
GASTEIGER

@<TRIPOS>ATOM
      1 N          60.5714   89.8705    9.5359 N.pl3   1  UNL1       -0.2801
      2 H          59.7935   90.4576    9.3965 H       1  UNL1        0.1552
      3 C          61.7164   89.9530   11.8667 C.ar    1  UNL1        0.1477
      4 C          61.7027   90.3200   10.4123 C.ar    1  UNL1        0.0846
      5 C          62.8204   91.1366    9.8344 C.ar    1  UNL1        0.0174
      6 C          63.9517   91.5862   10.7108 C.ar    1  UNL1       -0.0031
      7 C          63.9653   91.2190   12.1652 C.ar    1  UNL1       -0.0218
      8 C          62.8477   90.4025   12.7430 C.ar    1  UNL1        0.0091
      9 C          62.6676   89.9305   14.1555 C.3     1  UNL1        0.0292
     10 C          63.5609   90.1587   15.3388 C.3     1  UNL1        0.0062
     11 C          64.8546   90.9150   15.4019 C.3     1  UNL1        0.0166
     12 C          65.5748   91.6301   14.2974 C.3     1  UNL1        0.0619
     13 C          65.1790   91.7654   12.8569 C.3     1  UNL1        0.0421
     14 N          66.8607   92.2982   14.6845 N.3     1  UNL1       -0.2713
     15 C          68.1220   91.9897   13.9334 C.3     1  UNL1        0.0896
     16 C          69.4080   92.6579   14.3206 C.3     1  UNL1        0.0897
     17 N          69.4328   93.6345   15.4588 N.3     1  UNL1       -0.2691
     18 C          70.7187   94.3026   15.8460 C.3     1  UNL1        0.0897
     19 C          68.1715   93.9430   16.2100 C.3     1  UNL1        0.0897
     20 C          66.8855   93.2748   15.8228 C.3     1  UNL1        0.0896
     21 C          59.1951   89.6649   12.4236 C.3     1  UNL1        0.2525
     22 O          60.5987   89.1364   12.4447 O.3     1  UNL1       -0.4705
     23 C          60.6255   88.5266    8.8719 C.ar    1  UNL1        0.2219
     24 N          59.4810   88.0646    8.0193 N.ar    1  UNL1       -0.2110
     25 C          59.5350   86.7208    7.3553 C.ar    1  UNL1        0.1160
     26 C          60.7336   85.8387    7.5438 C.ar    1  UNL1        0.1082
     27 CL         60.7877   84.4948    6.8798 Cl      1  UNL1       -0.0777
     28 C          61.8781   86.3006    8.3964 C.ar    1  UNL1        0.1435
     29 N          61.8240   87.6445    9.0604 N.ar    1  UNL1       -0.1979
     30 N          63.0766   85.4186    8.5850 N.pl3   1  UNL1       -0.3181
     31 H          63.8308   85.4716    7.9544 H       1  UNL1        0.1482
     32 C          63.1261   84.4560    9.7342 C.3     1  UNL1        0.0832
     33 C          62.7598   84.7612   11.1564 C.3     1  UNL1        0.0984
     34 C          62.9579   83.5129   11.9642 C.3     1  UNL1        0.0323
     35 C          63.3823   82.0760   11.8930 C.2     1  UNL1       -0.0304
     36 C          63.7485   81.7708   10.4708 C.2     1  UNL1       -0.0294
     37 C          63.5505   83.0190    9.6630 C.3     1  UNL1        0.0404
     38 C          63.0618   84.0958   10.5861 C.3     1  UNL1        0.0109
     39 C          62.2798   86.0828   11.6791 C.2     1  UNL1        0.2208
     40 N          60.8351   86.4629   11.5435 N.am    1  UNL1       -0.3288
     41 O          63.2445   87.0241   12.3374 O.2     1  UNL1       -0.2753
     42 H          60.2020   85.8451   11.1114 H       1  UNL1        0.1449
     43 H          60.5201   87.3303   11.8865 H       1  UNL1        0.1449
@<TRIPOS>BOND
     1    21    22    1
     2    22     3    1
     3     3     4   ar
     4     4     1    1
     5     1    23    1
     6    23    24   ar
     7    24    25   ar
     8    25    26   ar
     9    26    27    1
    10    26    28   ar
    11    28    30    1
    12    32    30    1
    13    32    33    1
    14    33    39    1
    15    39    40   am
    16    39    41    2
    17    33    34    1
    18    34    35    1
    19    35    36    2
    20    37    36    1
    21    37    38    1
    22    28    29   ar
    23     4     5   ar
    24     5     6   ar
    25     6     7   ar
    26     7     8   ar
    27     8     9    1
    28     9    10    1
    29    10    11    1
    30    11    12    1
    31    12    14    1
    32    14    15    1
    33    15    16    1
    34    16    17    1
    35    17    18    1
    36    17    19    1
    37    19    20    1
    38    12    13    1
    39     8     3   ar
    40    20    14    1
    41    29    23   ar
    42    13     7    1
    43    37    32    1
    44    38    34    1
    45     1     2    1
    46    30    31    1
    47    40    42    1
    48    40    43    1
@<TRIPOS>MOLECULE
*****
 43 48 0 0 0
SMALL
GASTEIGER

@<TRIPOS>ATOM
      1 N          62.9676   90.8531   13.1379 N.pl3   1  UNL1       -0.2801
      2 H          62.1393   91.3501   12.9481 H       1  UNL1        0.1552
      3 C          63.5842   88.4887   14.0211 C.ar    1  UNL1        0.1477
      4 C          63.0100   89.3658   12.9481 C.ar    1  UNL1        0.0846
      5 C          62.4783   88.7554   11.6853 C.ar    1  UNL1        0.0174
      6 C          62.5207   87.2680   11.4954 C.ar    1  UNL1       -0.0031
      7 C          63.0948   86.3911   12.5684 C.ar    1  UNL1       -0.0218
      8 C          63.6265   87.0014   13.8311 C.ar    1  UNL1        0.0091
      9 C          64.2364   86.3147   15.0172 C.3     1  UNL1        0.0292
     10 C          64.4651   84.8480   15.2332 C.3     1  UNL1        0.0062
     11 C          64.1405   83.7060   14.3167 C.3     1  UNL1        0.0166
     12 C          63.5069   83.7483   12.9577 C.3     1  UNL1        0.0619
     13 C          63.0416   84.9433   12.1797 C.3     1  UNL1        0.0421
     14 N          63.3131   82.4201   12.2883 N.3     1  UNL1       -0.2713
     15 C          62.8217   81.2452   13.0811 C.3     1  UNL1        0.0896
     16 C          62.6279   79.9169   12.4116 C.3     1  UNL1        0.0897
     17 N          62.9255   79.7634   10.9495 N.3     1  UNL1       -0.2691
     18 C          62.7317   78.4352   10.2801 C.3     1  UNL1        0.0897
     19 C          63.4169   80.9382   10.1567 C.3     1  UNL1        0.0897
     20 C          63.6107   82.2666   10.8262 C.3     1  UNL1        0.0896
     21 C          63.2294   89.2249   16.4872 C.3     1  UNL1        0.2525
     22 O          64.1160   89.0990   15.2839 O.3     1  UNL1       -0.4705
     23 C          64.1873   91.5830   13.6170 C.ar    1  UNL1        0.2219
     24 N          64.4297   91.7544   15.0874 N.ar    1  UNL1       -0.2110
     25 C          65.6493   92.4843   15.5665 C.ar    1  UNL1        0.1160
     26 C          66.6267   93.0430   14.5752 C.ar    1  UNL1        0.1082
     27 CL         67.8464   93.7729   15.0543 Cl      1  UNL1       -0.0777
     28 C          66.3845   92.8716   13.1048 C.ar    1  UNL1        0.1435
     29 N          65.1648   92.1417   12.6257 N.ar    1  UNL1       -0.1979
     30 N          67.3618   93.4302   12.1135 N.pl3   1  UNL1       -0.3181
     31 H          68.2961   93.1200   12.1150 H       1  UNL1        0.1482
     32 C          66.9157   94.4615   11.1199 C.3     1  UNL1        0.0832
     33 C          67.3465   94.5484    9.6857 C.3     1  UNL1        0.0984
     34 C          66.6574   95.7276    9.0654 C.3     1  UNL1        0.0323
     35 C          65.7022   96.8530    9.3314 C.2     1  UNL1       -0.0304
     36 C          65.2714   96.7661   10.7656 C.2     1  UNL1       -0.0294
     37 C          65.9604   95.5870   11.3859 C.3     1  UNL1        0.0404
     38 C          66.8171   94.9451   10.3351 C.3     1  UNL1        0.0109
     39 C          68.2991   93.6192    8.9933 C.2     1  UNL1        0.2208
     40 N          69.3611   92.9106    9.7806 N.am    1  UNL1       -0.3288
     41 O          68.1895   93.3987    7.5137 O.2     1  UNL1       -0.2753
     42 H          69.4330   93.0553   10.7518 H       1  UNL1        0.1449
     43 H          69.9863   92.3008    9.3262 H       1  UNL1        0.1449
@<TRIPOS>BOND
     1    21    22    1
     2    22     3    1
     3     3     4   ar
     4     4     1    1
     5     1    23    1
     6    23    24   ar
     7    24    25   ar
     8    25    26   ar
     9    26    27    1
    10    26    28   ar
    11    28    30    1
    12    32    30    1
    13    32    33    1
    14    33    39    1
    15    39    40   am
    16    39    41    2
    17    33    34    1
    18    34    35    1
    19    35    36    2
    20    37    36    1
    21    37    38    1
    22    28    29   ar
    23     4     5   ar
    24     5     6   ar
    25     6     7   ar
    26     7     8   ar
    27     8     9    1
    28     9    10    1
    29    10    11    1
    30    11    12    1
    31    12    14    1
    32    14    15    1
    33    15    16    1
    34    16    17    1
    35    17    18    1
    36    17    19    1
    37    19    20    1
    38    12    13    1
    39     8     3   ar
    40    20    14    1
    41    29    23   ar
    42    13     7    1
    43    37    32    1
    44    38    34    1
    45     1     2    1
    46    30    31    1
    47    40    42    1
    48    40    43    1
@<TRIPOS>MOLECULE
*****
 43 48 0 0 0
SMALL
GASTEIGER

@<TRIPOS>ATOM
      1 N          60.4690   89.8229    9.4657 N.pl3   1  UNL1       -0.2801
      2 H          59.6968   90.4173    9.3251 H       1  UNL1        0.1552
      3 C          61.6307   89.8479   11.7895 C.ar    1  UNL1        0.1477
      4 C          61.6011   90.2598   10.3474 C.ar    1  UNL1        0.0846
      5 C          62.7036   91.1086    9.7871 C.ar    1  UNL1        0.0174
      6 C          63.8358   91.5455   10.6688 C.ar    1  UNL1       -0.0031
      7 C          63.8653   91.1336   12.1109 C.ar    1  UNL1       -0.0218
      8 C          62.7628   90.2848   12.6711 C.ar    1  UNL1        0.0091
      9 C          62.5998   89.7668   14.0694 C.3     1  UNL1        0.0292
     10 C          63.4991   89.9697   15.2527 C.3     1  UNL1        0.0062
     11 C          64.7833   90.7407   15.3300 C.3     1  UNL1        0.0166
     12 C          65.4857   91.4992   14.2431 C.3     1  UNL1        0.0619
     13 C          65.0771   91.6741   12.8104 C.3     1  UNL1        0.0421
     14 N          66.7658   92.1718   14.6415 N.3     1  UNL1       -0.2713
     15 C          66.7878   93.1091   15.8125 C.3     1  UNL1        0.0896
     16 C          68.0681   93.7817   16.2109 C.3     1  UNL1        0.0897
     17 N          69.3263   93.5171   15.4383 N.3     1  UNL1       -0.2691
     18 C          70.6064   94.1897   15.8367 C.3     1  UNL1        0.0897
     19 C          69.3043   92.5799   14.2673 C.3     1  UNL1        0.0897
     20 C          68.0241   91.9073   13.8689 C.3     1  UNL1        0.0896
     21 C          59.1260   89.5292   12.4016 C.3     1  UNL1        0.2525
     22 O          60.5282   88.9990   12.3498 O.3     1  UNL1       -0.4705
     23 C          60.5134   88.4804    8.7980 C.ar    1  UNL1        0.2219
     24 N          59.5894   88.1802    7.6551 N.ar    1  UNL1       -0.2110
     25 C          59.6338   86.8378    6.9875 C.ar    1  UNL1        0.1160
     26 C          60.6023   85.7955    7.4627 C.ar    1  UNL1        0.1082
     27 CL         60.6467   84.4530    6.7950 Cl      1  UNL1       -0.0777
     28 C          61.5263   86.0956    8.6055 C.ar    1  UNL1        0.1435
     29 N          61.4819   87.4381    9.2732 N.ar    1  UNL1       -0.1979
     30 N          62.4947   85.0534    9.0808 N.pl3   1  UNL1       -0.3181
     31 H          62.8957   84.4246    8.4381 H       1  UNL1        0.1482
     32 C          62.8522   84.9693   10.5350 C.3     1  UNL1        0.0832
     33 C          63.4211   83.7709   11.2352 C.3     1  UNL1        0.0984
     34 C          63.6241   84.1297   12.6775 C.3     1  UNL1        0.0323
     35 C          63.4754   85.2292   13.6870 C.2     1  UNL1       -0.0304
     36 C          62.9065   86.4275   12.9868 C.2     1  UNL1       -0.0294
     37 C          62.7035   86.0687   11.5445 C.3     1  UNL1        0.0404
     38 C          63.1471   84.6485   11.3534 C.3     1  UNL1        0.0109
     39 C          63.7325   82.4462   10.6040 C.2     1  UNL1        0.2208
     40 N          62.9174   81.2374   10.9565 N.am    1  UNL1       -0.3288
     41 O          64.8589   82.3305    9.6202 O.2     1  UNL1       -0.2753
     42 H          62.1781   81.3134   11.6022 H       1  UNL1        0.1449
     43 H          63.1217   80.3680   10.5423 H       1  UNL1        0.1449
@<TRIPOS>BOND
     1    21    22    1
     2    22     3    1
     3     3     4   ar
     4     4     1    1
     5     1    23    1
     6    23    24   ar
     7    24    25   ar
     8    25    26   ar
     9    26    27    1
    10    26    28   ar
    11    28    30    1
    12    32    30    1
    13    32    33    1
    14    33    39    1
    15    39    40   am
    16    39    41    2
    17    33    34    1
    18    34    35    1
    19    35    36    2
    20    37    36    1
    21    37    38    1
    22    28    29   ar
    23     4     5   ar
    24     5     6   ar
    25     6     7   ar
    26     7     8   ar
    27     8     9    1
    28     9    10    1
    29    10    11    1
    30    11    12    1
    31    12    14    1
    32    14    15    1
    33    15    16    1
    34    16    17    1
    35    17    18    1
    36    17    19    1
    37    19    20    1
    38    12    13    1
    39     8     3   ar
    40    20    14    1
    41    29    23   ar
    42    13     7    1
    43    37    32    1
    44    38    34    1
    45     1     2    1
    46    30    31    1
    47    40    42    1
    48    40    43    1
@<TRIPOS>MOLECULE
*****
 43 48 0 0 0
SMALL
GASTEIGER

@<TRIPOS>ATOM
      1 N          64.0274   90.7397   15.0560 N.pl3   1  UNL1       -0.2801
      2 H          63.2636   91.2194   15.4505 H       1  UNL1        0.1552
      3 C          63.3243   89.2123   13.0753 C.ar    1  UNL1        0.1477
      4 C          63.8345   89.3694   14.4771 C.ar    1  UNL1        0.0846
      5 C          64.1518   88.1561   15.3001 C.ar    1  UNL1        0.0174
      6 C          63.9590   86.7858   14.7213 C.ar    1  UNL1       -0.0031
      7 C          63.4487   86.6288   13.3195 C.ar    1  UNL1       -0.0218
      8 C          63.1314   87.8420   12.4966 C.ar    1  UNL1        0.0091
      9 C          62.6162   87.9091   11.0894 C.3     1  UNL1        0.0292
     10 C          62.2910   86.7793   10.1577 C.3     1  UNL1        0.0062
     11 C          62.4008   85.3037   10.4030 C.3     1  UNL1        0.0166
     12 C          62.8628   84.5931   11.6406 C.3     1  UNL1        0.0619
     13 C          63.3292   85.1828   12.9386 C.3     1  UNL1        0.0421
     14 N          62.8578   83.0948   11.5711 N.3     1  UNL1       -0.2713
     15 C          63.2823   82.4010   10.3107 C.3     1  UNL1        0.0896
     16 C          63.2772   80.9026   10.2412 C.3     1  UNL1        0.0897
     17 N          62.8478   80.0979   11.4320 N.3     1  UNL1       -0.2691
     18 C          62.8428   78.5996   11.3625 C.3     1  UNL1        0.0897
     19 C          62.4234   80.7917   12.6925 C.3     1  UNL1        0.0897
     20 C          62.4284   82.2901   12.7620 C.3     1  UNL1        0.0896
     21 C          61.6151   90.6379   11.7351 C.3     1  UNL1        0.2525
     22 O          63.0070   90.4256   12.2523 O.3     1  UNL1       -0.4705
     23 C          65.3842   91.3790   15.0337 C.ar    1  UNL1        0.2219
     24 N          65.8372   92.2179   16.1918 N.ar    1  UNL1       -0.2110
     25 C          67.1938   92.8572   16.1696 C.ar    1  UNL1        0.1160
     26 C          68.0977   92.6577   14.9892 C.ar    1  UNL1        0.1082
     27 CL         69.4544   93.2970   14.9669 Cl      1  UNL1       -0.0777
     28 C          67.6448   91.8188   13.8310 C.ar    1  UNL1        0.1435
     29 N          66.2880   91.1795   13.8533 N.ar    1  UNL1       -0.1979
     30 N          68.5486   91.6192   12.6507 N.pl3   1  UNL1       -0.3181
     31 H          69.3620   91.0721   12.7405 H       1  UNL1        0.1482
     32 C          68.2130   92.2533   11.3334 C.3     1  UNL1        0.0832
     33 C          67.0360   93.1411   11.0566 C.3     1  UNL1        0.0984
     34 C          67.0910   93.5474    9.6137 C.3     1  UNL1        0.0323
     35 C          67.8735   93.4049    8.3419 C.2     1  UNL1       -0.0304
     36 C          69.0504   92.5171    8.6187 C.2     1  UNL1       -0.0294
     37 C          68.9954   92.1109   10.0616 C.3     1  UNL1        0.0404
     38 C          67.7844   92.7476   10.6765 C.3     1  UNL1        0.0109
     39 C          65.9880   93.5507   12.0486 C.2     1  UNL1        0.2208
     40 N          64.6756   92.8258   12.0955 N.am    1  UNL1       -0.3288
     41 O          66.2524   94.6853   12.9935 O.2     1  UNL1       -0.2753
     42 H          64.5021   92.0812   11.4753 H       1  UNL1        0.1449
     43 H          63.9878   93.0947   12.7465 H       1  UNL1        0.1449
@<TRIPOS>BOND
     1    21    22    1
     2    22     3    1
     3     3     4   ar
     4     4     1    1
     5     1    23    1
     6    23    24   ar
     7    24    25   ar
     8    25    26   ar
     9    26    27    1
    10    26    28   ar
    11    28    30    1
    12    32    30    1
    13    32    33    1
    14    33    39    1
    15    39    40   am
    16    39    41    2
    17    33    34    1
    18    34    35    1
    19    35    36    2
    20    37    36    1
    21    37    38    1
    22    28    29   ar
    23     4     5   ar
    24     5     6   ar
    25     6     7   ar
    26     7     8   ar
    27     8     9    1
    28     9    10    1
    29    10    11    1
    30    11    12    1
    31    12    14    1
    32    14    15    1
    33    15    16    1
    34    16    17    1
    35    17    18    1
    36    17    19    1
    37    19    20    1
    38    12    13    1
    39     8     3   ar
    40    20    14    1
    41    29    23   ar
    42    13     7    1
    43    37    32    1
    44    38    34    1
    45     1     2    1
    46    30    31    1
    47    40    42    1
    48    40    43    1
@<TRIPOS>MOLECULE
*****
 43 48 0 0 0
SMALL
GASTEIGER

@<TRIPOS>ATOM
      1 N          63.5552   91.0572   14.7066 N.pl3   1  UNL1       -0.2801
      2 H          62.7526   91.5340   15.0192 H       1  UNL1        0.1552
      3 C          62.9388   89.4424   12.7668 C.ar    1  UNL1        0.1477
      4 C          63.4362   89.6636   14.1645 C.ar    1  UNL1        0.0846
      5 C          63.8146   88.4912   15.0203 C.ar    1  UNL1        0.0174
      6 C          63.6956   87.0976   14.4783 C.ar    1  UNL1       -0.0031
      7 C          63.1982   86.8764   13.0806 C.ar    1  UNL1       -0.0218
      8 C          62.8198   88.0488   12.2249 C.ar    1  UNL1        0.0091
      9 C          62.3056   88.0509   10.8157 C.3     1  UNL1        0.0292
     10 C          62.0429   86.8810    9.9143 C.3     1  UNL1        0.0062
     11 C          62.2294   85.4203   10.1995 C.3     1  UNL1        0.0166
     12 C          62.7248   84.7685   11.4564 C.3     1  UNL1        0.0619
     13 C          63.1559   85.4165   12.7386 C.3     1  UNL1        0.0421
     14 N          62.7987   83.2706   11.4272 N.3     1  UNL1       -0.2713
     15 C          63.3705   82.5711   10.2297 C.3     1  UNL1        0.0896
     16 C          63.4444   81.0731   10.2006 C.3     1  UNL1        0.0897
     17 N          62.9467   80.2747   11.3688 N.3     1  UNL1       -0.2691
     18 C          63.0206   78.7769   11.3396 C.3     1  UNL1        0.0897
     19 C          62.3749   80.9743   12.5663 C.3     1  UNL1        0.0897
     20 C          62.3009   82.4722   12.5954 C.3     1  UNL1        0.0896
     21 C          63.5814   91.2490   11.0138 C.3     1  UNL1        0.2525
     22 O          62.5604   90.6147   11.9110 O.3     1  UNL1       -0.4705
     23 C          64.8971   91.7242   14.7722 C.ar    1  UNL1        0.2219
     24 N          65.5195   92.0281   16.1028 N.ar    1  UNL1       -0.2110
     25 C          66.8613   92.6951   16.1685 C.ar    1  UNL1        0.1160
     26 C          67.5810   93.0584   14.9035 C.ar    1  UNL1        0.1082
     27 CL         68.9229   93.7255   14.9691 Cl      1  UNL1       -0.0777
     28 C          66.9587   92.7546   13.5728 C.ar    1  UNL1        0.1435
     29 N          65.6168   92.0875   13.5072 N.ar    1  UNL1       -0.1979
     30 N          67.6783   93.1178   12.3078 N.pl3   1  UNL1       -0.3181
     31 H          68.5278   92.6753   12.0804 H       1  UNL1        0.1482
     32 C          67.1036   94.1552   11.3894 C.3     1  UNL1        0.0832
     33 C          67.2315   94.1779    9.8951 C.3     1  UNL1        0.0984
     34 C          66.5071   95.3888    9.3862 C.3     1  UNL1        0.0323
     35 C          65.7035   96.5856    9.8009 C.2     1  UNL1       -0.0304
     36 C          65.5756   96.5628   11.2952 C.2     1  UNL1       -0.0294
     37 C          66.3001   95.3520   11.8041 C.3     1  UNL1        0.0404
     38 C          66.8758   94.6264   10.6242 C.3     1  UNL1        0.0109
     39 C          67.9567   93.1672    9.0567 C.2     1  UNL1        0.2208
     40 N          68.3021   91.8253    9.6313 N.am    1  UNL1       -0.3288
     41 O          68.3364   93.4984    7.6439 O.2     1  UNL1       -0.2753
     42 H          68.0528   91.6079   10.5586 H       1  UNL1        0.1449
     43 H          68.7780   91.1620    9.0811 H       1  UNL1        0.1449
@<TRIPOS>BOND
     1    21    22    1
     2    22     3    1
     3     3     4   ar
     4     4     1    1
     5     1    23    1
     6    23    24   ar
     7    24    25   ar
     8    25    26   ar
     9    26    27    1
    10    26    28   ar
    11    28    30    1
    12    32    30    1
    13    32    33    1
    14    33    39    1
    15    39    40   am
    16    39    41    2
    17    33    34    1
    18    34    35    1
    19    35    36    2
    20    37    36    1
    21    37    38    1
    22    28    29   ar
    23     4     5   ar
    24     5     6   ar
    25     6     7   ar
    26     7     8   ar
    27     8     9    1
    28     9    10    1
    29    10    11    1
    30    11    12    1
    31    12    14    1
    32    14    15    1
    33    15    16    1
    34    16    17    1
    35    17    18    1
    36    17    19    1
    37    19    20    1
    38    12    13    1
    39     8     3   ar
    40    20    14    1
    41    29    23   ar
    42    13     7    1
    43    37    32    1
    44    38    34    1
    45     1     2    1
    46    30    31    1
    47    40    42    1
    48    40    43    1
