@<TRIPOS>MOLECULE
*****
 45 49 0 0 0
SMALL
GASTEIGER

@<TRIPOS>ATOM
      1 C          61.0657   88.6998    9.3805 C.3     1  UNL1        0.0964
      2 C          60.2637   89.8786    8.9144 C.3     1  UNL1        0.0780
      3 N          59.3005   89.7269    7.7745 N.3     1  UNL1       -0.2970
      4 C          59.1393   88.3965    7.1009 C.3     1  UNL1        0.0689
      5 C          59.9413   87.2177    7.5671 C.3     1  UNL1        0.0220
      6 C          60.9045   87.3694    8.7069 C.3     1  UNL1        0.0337
      7 H          59.5902   90.3885    7.0543 H       1  UNL1        0.1233
      8 C          61.7064   86.1906    9.1730 C.ar    1  UNL1       -0.0217
      9 C          61.5373   85.6740   10.5711 C.ar    1  UNL1       -0.0012
     10 C          62.3393   84.4952   11.0372 C.ar    1  UNL1        0.0366
     11 C          63.3104   83.8330   10.1054 C.ar    1  UNL1        0.1387
     12 C          63.4795   84.3496    8.7073 C.ar    1  UNL1        0.0366
     13 C          62.6775   85.5284    8.2412 C.ar    1  UNL1       -0.0012
     14 O          64.1124   82.6542   10.5715 O.3     1  UNL1       -0.4714
     15 C          63.4979   81.6489   11.4997 C.3     1  UNL1        0.2525
     16 C          63.7504   81.7381   12.9756 C.3     1  UNL1        0.2525
     17 O          64.6084   82.8394   13.5245 O.3     1  UNL1       -0.4697
     18 C          64.0450   83.7983   14.5310 C.ar    1  UNL1        0.1596
     19 C          62.6666   83.5831   15.0821 C.ar    1  UNL1        0.0921
     20 CL         61.8517   82.4090   14.6268 Cl      1  UNL1       -0.0791
     21 C          62.1032   84.5419   16.0887 C.ar    1  UNL1        0.0103
     22 C          62.9181   85.7160   16.5440 C.ar    1  UNL1       -0.0200
     23 C          62.3547   86.6749   17.5506 C.3     1  UNL1        0.0311
     24 C          64.2965   85.9313   15.9929 C.ar    1  UNL1        0.0103
     25 C          64.8600   84.9724   14.9864 C.ar    1  UNL1        0.0921
     26 CL         66.2383   85.1876   14.4352 Cl      1  UNL1       -0.0791
     27 N          61.5497   89.3721   11.8430 N.am    1  UNL1       -0.2770
     28 C          62.0289   88.8515   10.5204 C.2     1  UNL1        0.2270
     29 O          63.4713   88.4827   10.3376 O.2     1  UNL1       -0.2748
     30 C          60.1073   89.7409   12.0259 C.3     1  UNL1        0.0758
     31 C          58.7329   89.4028   12.5225 C.3     1  UNL1        0.0215
     32 C          58.9834   90.7179   11.8459 C.3     1  UNL1        0.0215
     33 C          62.5129   89.5238   12.9829 C.3     1  UNL1        0.1209
     34 C          64.9386   92.3181   11.5483 C.ar    1  UNL1       -0.0066
     35 C          65.9173   92.4507   12.6774 C.ar    1  UNL1       -0.0021
     36 C          65.7612   91.6077   13.9082 C.ar    1  UNL1        0.0109
     37 C          64.6264   90.6321   14.0100 C.ar    1  UNL1        0.0553
     38 CL         64.4703   89.7891   15.2408 Cl      1  UNL1       -0.0825
     39 C          63.6477   90.4994   12.8811 C.ar    1  UNL1        0.0080
     40 C          63.8038   91.3425   11.6502 C.ar    1  UNL1       -0.0047
     41 C          65.0947   93.1612   10.3176 C.3     1  UNL1        0.0956
     42 N          65.3880   94.6267   10.4445 N.3     1  UNL1       -0.2937
     43 H          64.7348   95.1121    9.8296 H       1  UNL1        0.1236
     44 C          67.6989   94.3219    9.2968 C.3     1  UNL1        0.0185
     45 C          66.7567   95.1485   10.1208 C.3     1  UNL1        0.0689
@<TRIPOS>BOND
     1    44    45    1
     2    45    42    1
     3    42    41    1
     4    41    34    1
     5    34    35   ar
     6    35    36   ar
     7    36    37   ar
     8    37    38    1
     9    37    39   ar
    10    39    33    1
    11    33    27    1
    12    27    28   am
    13    28    29    2
    14     1    28    1
    15     1     2    1
    16     2     3    1
    17     3     4    1
    18     4     5    1
    19     5     6    1
    20     6     8    1
    21     8     9   ar
    22     9    10   ar
    23    10    11   ar
    24    11    14    1
    25    14    15    1
    26    15    16    1
    27    16    17    1
    28    17    18    1
    29    18    19   ar
    30    19    20    1
    31    19    21   ar
    32    21    22   ar
    33    22    23    1
    34    22    24   ar
    35    24    25   ar
    36    25    26    1
    37    11    12   ar
    38    12    13   ar
    39    27    30    1
    40    30    31    1
    41    31    32    1
    42    39    40   ar
    43    40    34   ar
    44     6     1    1
    45    13     8   ar
    46    32    30    1
    47    25    18   ar
    48    42    43    1
    49     3     7    1
@<TRIPOS>MOLECULE
*****
 45 49 0 0 0
SMALL
GASTEIGER

@<TRIPOS>ATOM
      1 C          61.2612   88.6997   10.5750 C.3     1  UNL1        0.0964
      2 C          60.5394   90.0032   10.4017 C.3     1  UNL1        0.0780
      3 N          59.7186   90.2481    9.1704 N.3     1  UNL1       -0.2970
      4 C          59.6196   89.1895    8.1123 C.3     1  UNL1        0.0689
      5 C          60.3414   87.8861    8.2855 C.3     1  UNL1        0.0220
      6 C          61.1622   87.6412    9.5169 C.3     1  UNL1        0.0337
      7 H          60.1031   91.0789    8.7207 H       1  UNL1        0.1233
      8 C          61.8840   86.3377    9.6902 C.ar    1  UNL1       -0.0217
      9 C          61.6982   85.5387   10.9459 C.ar    1  UNL1       -0.0012
     10 C          62.4201   84.2352   11.1192 C.ar    1  UNL1        0.0366
     11 C          63.3276   83.7308   10.0367 C.ar    1  UNL1        0.1387
     12 C          63.5134   84.5299    8.7809 C.ar    1  UNL1        0.0366
     13 C          62.7916   85.8333    8.6077 C.ar    1  UNL1       -0.0012
     14 O          64.0494   82.4274   10.2099 O.3     1  UNL1       -0.4714
     15 C          63.4620   81.3544   11.0780 C.3     1  UNL1        0.2525
     16 C          63.6962   81.3763   12.5594 C.3     1  UNL1        0.2525
     17 O          64.5592   82.4424   13.1667 O.3     1  UNL1       -0.4697
     18 C          63.9896   83.3717   14.1973 C.ar    1  UNL1        0.1596
     19 C          64.7856   84.5551   14.6617 C.ar    1  UNL1        0.0921
     20 CL         66.1512   84.8093   14.0956 Cl      1  UNL1       -0.0791
     21 C          64.2160   85.4843   15.6923 C.ar    1  UNL1        0.0103
     22 C          62.8505   85.2301   16.2584 C.ar    1  UNL1       -0.0200
     23 C          62.2809   86.1594   17.2890 C.3     1  UNL1        0.0311
     24 C          62.0544   84.0466   15.7940 C.ar    1  UNL1        0.0103
     25 C          62.6239   83.1174   14.7634 C.ar    1  UNL1        0.0921
     26 CL         61.8279   81.9340   14.2989 Cl      1  UNL1       -0.0791
     27 N          63.2103   89.3808   12.1521 N.am    1  UNL1       -0.2770
     28 C          62.0820   88.4549   11.8064 C.2     1  UNL1        0.2270
     29 O          61.7744   87.2840   12.6922 O.2     1  UNL1       -0.2748
     30 C          63.5179   90.5516   11.2663 C.3     1  UNL1        0.0758
     31 C          64.2812   91.8156   11.0023 C.3     1  UNL1        0.0215
     32 C          63.2872   91.3156    9.9962 C.3     1  UNL1        0.0215
     33 C          64.0311   89.1359   13.3835 C.3     1  UNL1        0.1209
     34 C          65.9313   92.4129   14.5672 C.ar    1  UNL1       -0.0066
     35 C          65.3470   92.6005   15.9360 C.ar    1  UNL1       -0.0021
     36 C          64.3241   91.6333   16.4539 C.ar    1  UNL1        0.0109
     37 C          63.8855   90.4784   15.6031 C.ar    1  UNL1        0.0553
     38 CL         62.8627   89.5112   16.1209 Cl      1  UNL1       -0.0825
     39 C          64.4697   90.2908   14.2343 C.ar    1  UNL1        0.0080
     40 C          65.4927   91.2580   13.7164 C.ar    1  UNL1       -0.0047
     41 C          66.9541   93.3801   14.0494 C.3     1  UNL1        0.0956
     42 N          67.0537   93.6497   12.5772 N.3     1  UNL1       -0.2937
     43 H          68.0362   93.8380   12.3781 H       1  UNL1        0.1236
     44 C          66.3680   95.0415   10.4932 C.3     1  UNL1        0.0185
     45 C          66.2654   94.7694   11.9648 C.3     1  UNL1        0.0689
@<TRIPOS>BOND
     1    44    45    1
     2    45    42    1
     3    42    41    1
     4    41    34    1
     5    34    35   ar
     6    35    36   ar
     7    36    37   ar
     8    37    38    1
     9    37    39   ar
    10    39    33    1
    11    33    27    1
    12    27    28   am
    13    28    29    2
    14     1    28    1
    15     1     2    1
    16     2     3    1
    17     3     4    1
    18     4     5    1
    19     5     6    1
    20     6     8    1
    21     8     9   ar
    22     9    10   ar
    23    10    11   ar
    24    11    14    1
    25    14    15    1
    26    15    16    1
    27    16    17    1
    28    17    18    1
    29    18    19   ar
    30    19    20    1
    31    19    21   ar
    32    21    22   ar
    33    22    23    1
    34    22    24   ar
    35    24    25   ar
    36    25    26    1
    37    11    12   ar
    38    12    13   ar
    39    27    30    1
    40    30    31    1
    41    31    32    1
    42    39    40   ar
    43    40    34   ar
    44     6     1    1
    45    13     8   ar
    46    32    30    1
    47    25    18   ar
    48    42    43    1
    49     3     7    1
@<TRIPOS>MOLECULE
*****
 45 49 0 0 0
SMALL
GASTEIGER

@<TRIPOS>ATOM
      1 C          61.1470   88.1825    9.4792 C.3     1  UNL1        0.0964
      2 C          60.3495   89.1162    8.6176 C.3     1  UNL1        0.0780
      3 N          59.3700   88.5669    7.6232 N.3     1  UNL1       -0.2970
      4 C          59.1881   87.0840    7.4903 C.3     1  UNL1        0.0689
      5 C          59.9855   86.1503    8.3518 C.3     1  UNL1        0.0220
      6 C          60.9650   86.6995    9.3463 C.3     1  UNL1        0.0337
      7 H          59.6560   88.9118    6.7069 H       1  UNL1        0.1233
      8 C          61.7625   85.7659   10.2078 C.ar    1  UNL1       -0.0217
      9 C          61.5713   85.7704   11.6955 C.ar    1  UNL1       -0.0012
     10 C          62.3687   84.8367   12.5570 C.ar    1  UNL1        0.0366
     11 C          63.3574   83.8985   11.9309 C.ar    1  UNL1        0.1387
     12 C          63.5487   83.8939   10.4431 C.ar    1  UNL1        0.0366
     13 C          62.7512   84.8276    9.5816 C.ar    1  UNL1       -0.0012
     14 O          64.1549   82.9648   12.7924 O.3     1  UNL1       -0.4714
     15 C          63.6585   82.5971   14.1593 C.3     1  UNL1        0.2525
     16 C          62.9884   83.6296   15.0166 C.3     1  UNL1        0.2525
     17 O          63.7889   84.4051   16.0205 O.3     1  UNL1       -0.4697
     18 C          63.7604   85.9048   16.0053 C.ar    1  UNL1        0.1596
     19 C          64.5079   86.6584   14.9455 C.ar    1  UNL1        0.0921
     20 CL         65.2839   85.9123   13.9009 Cl      1  UNL1       -0.0791
     21 C          64.4795   88.1580   14.9302 C.ar    1  UNL1        0.0103
     22 C          63.7035   88.9041   15.9748 C.ar    1  UNL1       -0.0200
     23 C          63.6750   90.4037   15.9595 C.3     1  UNL1        0.0311
     24 C          62.9559   88.1505   17.0347 C.ar    1  UNL1        0.0103
     25 C          62.9844   86.6508   17.0500 C.ar    1  UNL1        0.0921
     26 CL         62.2369   85.8973   18.1098 Cl      1  UNL1       -0.0791
     27 N          61.6439   89.5856   11.6086 N.am    1  UNL1       -0.2770
     28 C          62.1264   88.7318   10.4736 C.2     1  UNL1        0.2270
     29 O          63.5885   88.4273   10.3331 O.2     1  UNL1       -0.2748
     30 C          60.1819   89.8902   11.7491 C.3     1  UNL1        0.0758
     31 C          59.0152   90.8007   11.5043 C.3     1  UNL1        0.0215
     32 C          58.8163   89.5072   12.2373 C.3     1  UNL1        0.0215
     33 C          62.6234   90.1350   12.6030 C.3     1  UNL1        0.1209
     34 C          65.8831   92.3985   12.6365 C.ar    1  UNL1       -0.0066
     35 C          65.8297   92.9927   11.2603 C.ar    1  UNL1       -0.0021
     36 C          64.7075   92.6344   10.3317 C.ar    1  UNL1        0.0109
     37 C          63.6388   91.6818   10.7792 C.ar    1  UNL1        0.0553
     38 CL         62.5166   91.3235    9.8506 Cl      1  UNL1       -0.0825
     39 C          63.6921   91.0876   12.1554 C.ar    1  UNL1        0.0080
     40 C          64.8143   91.4459   13.0841 C.ar    1  UNL1       -0.0047
     41 C          67.0052   92.7568   13.5652 C.3     1  UNL1        0.0956
     42 N          66.7202   93.5110   14.8301 N.3     1  UNL1       -0.2937
     43 H          67.0950   94.4511   14.7032 H       1  UNL1        0.1236
     44 C          68.5998   92.3550   16.2015 C.3     1  UNL1        0.0185
     45 C          67.2502   93.0066   16.1396 C.3     1  UNL1        0.0689
@<TRIPOS>BOND
     1    44    45    1
     2    45    42    1
     3    42    41    1
     4    41    34    1
     5    34    35   ar
     6    35    36   ar
     7    36    37   ar
     8    37    38    1
     9    37    39   ar
    10    39    33    1
    11    33    27    1
    12    27    28   am
    13    28    29    2
    14     1    28    1
    15     1     2    1
    16     2     3    1
    17     3     4    1
    18     4     5    1
    19     5     6    1
    20     6     8    1
    21     8     9   ar
    22     9    10   ar
    23    10    11   ar
    24    11    14    1
    25    14    15    1
    26    15    16    1
    27    16    17    1
    28    17    18    1
    29    18    19   ar
    30    19    20    1
    31    19    21   ar
    32    21    22   ar
    33    22    23    1
    34    22    24   ar
    35    24    25   ar
    36    25    26    1
    37    11    12   ar
    38    12    13   ar
    39    27    30    1
    40    30    31    1
    41    31    32    1
    42    39    40   ar
    43    40    34   ar
    44     6     1    1
    45    13     8   ar
    46    32    30    1
    47    25    18   ar
    48    42    43    1
    49     3     7    1
@<TRIPOS>MOLECULE
*****
 45 49 0 0 0
SMALL
GASTEIGER

@<TRIPOS>ATOM
      1 C          61.2707   88.6515   10.5972 C.3     1  UNL1        0.0964
      2 C          60.5599   89.9591   10.4110 C.3     1  UNL1        0.0780
      3 N          59.7750   90.2144    9.1585 N.3     1  UNL1       -0.2970
      4 C          59.7010   89.1620    8.0922 C.3     1  UNL1        0.0689
      5 C          60.4119   87.8543    8.2785 C.3     1  UNL1        0.0220
      6 C          61.1967   87.5991    9.5310 C.3     1  UNL1        0.0337
      7 H          60.1756   91.0458    8.7242 H       1  UNL1        0.1233
      8 C          61.9076   86.2914    9.7172 C.ar    1  UNL1       -0.0217
      9 C          62.8427   85.7885    8.6577 C.ar    1  UNL1       -0.0012
     10 C          63.5536   84.4809    8.8440 C.ar    1  UNL1        0.0366
     11 C          63.3293   83.6761   10.0897 C.ar    1  UNL1        0.1387
     12 C          62.3941   84.1789   11.1492 C.ar    1  UNL1        0.0366
     13 C          61.6833   85.4866   10.9630 C.ar    1  UNL1       -0.0012
     14 O          64.0401   82.3684   10.2760 O.3     1  UNL1       -0.4714
     15 C          63.5130   81.3609   11.2542 C.3     1  UNL1        0.2525
     16 C          63.8741   81.4653   12.7064 C.3     1  UNL1        0.2525
     17 O          64.6492   82.6496   13.2032 O.3     1  UNL1       -0.4697
     18 C          64.0570   83.5493   14.2470 C.ar    1  UNL1        0.1596
     19 C          62.6829   83.2744   14.7821 C.ar    1  UNL1        0.0921
     20 CL         61.9011   82.0997   14.2733 Cl      1  UNL1       -0.0791
     21 C          62.0906   84.1742   15.8259 C.ar    1  UNL1        0.0103
     22 C          62.8724   85.3489   16.3347 C.ar    1  UNL1       -0.0200
     23 C          62.2801   86.2486   17.3786 C.3     1  UNL1        0.0311
     24 C          64.2465   85.6238   15.7996 C.ar    1  UNL1        0.0103
     25 C          64.8388   84.7241   14.7558 C.ar    1  UNL1        0.0921
     26 CL         66.2129   84.9990   14.2207 Cl      1  UNL1       -0.0791
     27 N          63.1768   89.3161   12.2328 N.am    1  UNL1       -0.2770
     28 C          62.0556   88.3962   11.8498 C.2     1  UNL1        0.2270
     29 O          61.7192   87.2212   12.7193 O.2     1  UNL1       -0.2748
     30 C          63.5132   90.4911   11.3633 C.3     1  UNL1        0.0758
     31 C          64.2930   91.7503   11.1257 C.3     1  UNL1        0.0215
     32 C          63.3161   91.2672   10.0950 C.3     1  UNL1        0.0215
     33 C          63.9617   89.0608   13.4854 C.3     1  UNL1        0.1209
     34 C          66.1081   92.2040   14.6096 C.ar    1  UNL1       -0.0066
     35 C          65.4780   92.5183   15.9342 C.ar    1  UNL1       -0.0021
     36 C          64.3427   91.6801   16.4424 C.ar    1  UNL1        0.0109
     37 C          63.8372   90.5277   15.6261 C.ar    1  UNL1        0.0553
     38 CL         62.7018   89.6895   16.1344 Cl      1  UNL1       -0.0825
     39 C          64.4672   90.2133   14.3016 C.ar    1  UNL1        0.0080
     40 C          65.6026   91.0515   13.7934 C.ar    1  UNL1       -0.0047
     41 C          67.2434   93.0422   14.1014 C.3     1  UNL1        0.0956
     42 N          68.6548   92.5507   14.2303 N.3     1  UNL1       -0.2937
     43 H          68.6048   91.5384   14.3450 H       1  UNL1        0.1236
     44 C          69.0178   94.1236   16.2661 C.3     1  UNL1        0.0185
     45 C          69.5316   93.0686   15.3317 C.3     1  UNL1        0.0689
@<TRIPOS>BOND
     1    44    45    1
     2    45    42    1
     3    42    41    1
     4    41    34    1
     5    34    35   ar
     6    35    36   ar
     7    36    37   ar
     8    37    38    1
     9    37    39   ar
    10    39    33    1
    11    33    27    1
    12    27    28   am
    13    28    29    2
    14     1    28    1
    15     1     2    1
    16     2     3    1
    17     3     4    1
    18     4     5    1
    19     5     6    1
    20     6     8    1
    21     8     9   ar
    22     9    10   ar
    23    10    11   ar
    24    11    14    1
    25    14    15    1
    26    15    16    1
    27    16    17    1
    28    17    18    1
    29    18    19   ar
    30    19    20    1
    31    19    21   ar
    32    21    22   ar
    33    22    23    1
    34    22    24   ar
    35    24    25   ar
    36    25    26    1
    37    11    12   ar
    38    12    13   ar
    39    27    30    1
    40    30    31    1
    41    31    32    1
    42    39    40   ar
    43    40    34   ar
    44     6     1    1
    45    13     8   ar
    46    32    30    1
    47    25    18   ar
    48    42    43    1
    49     3     7    1
@<TRIPOS>MOLECULE
*****
 45 49 0 0 0
SMALL
GASTEIGER

@<TRIPOS>ATOM
      1 C          62.3176   93.2733   -0.1661 C.3     1  UNL1        0.0964
      2 C          63.2613   93.7397   -1.2347 C.3     1  UNL1        0.0780
      3 N          64.6330   94.2217   -0.8657 N.3     1  UNL1       -0.2970
      4 C          65.0609   94.2373    0.5718 C.3     1  UNL1        0.0689
      5 C          64.1172   93.7709    1.6404 C.3     1  UNL1        0.0220
      6 C          62.7456   93.2889    1.2715 C.3     1  UNL1        0.0337
      7 H          64.7097   95.1801   -1.2062 H       1  UNL1        0.1233
      8 C          61.8019   92.8224    2.3401 C.ar    1  UNL1       -0.0217
      9 C          62.2190   91.7367    3.2873 C.ar    1  UNL1       -0.0012
     10 C          61.2753   91.2703    4.3559 C.ar    1  UNL1        0.0366
     11 C          59.9145   91.8896    4.4773 C.ar    1  UNL1        0.1387
     12 C          59.4974   92.9753    3.5300 C.ar    1  UNL1        0.0366
     13 C          60.4411   93.4417    2.4614 C.ar    1  UNL1       -0.0012
     14 O          58.9708   91.4232    5.5459 O.3     1  UNL1       -0.4714
     15 C          58.9269   89.9731    5.9269 C.3     1  UNL1        0.2525
     16 C          59.7280   89.4800    7.0953 C.3     1  UNL1        0.2525
     17 O          59.1347   88.4799    8.0429 O.3     1  UNL1       -0.4697
     18 C          60.0150   87.7586    9.0200 C.ar    1  UNL1        0.1596
     19 C          60.5374   86.3914    8.6916 C.ar    1  UNL1        0.0921
     20 CL         60.1795   85.7456    7.3859 Cl      1  UNL1       -0.0791
     21 C          61.4177   85.6702    9.6687 C.ar    1  UNL1        0.0103
     22 C          61.7757   86.3161   10.9743 C.ar    1  UNL1       -0.0200
     23 C          62.6560   85.5948   11.9514 C.3     1  UNL1        0.0311
     24 C          61.2533   87.6833   11.3028 C.ar    1  UNL1        0.0103
     25 C          60.3730   88.4046   10.3257 C.ar    1  UNL1        0.0921
     26 CL         59.8506   89.7717   10.6541 Cl      1  UNL1       -0.0791
     27 N          59.9240   93.7604   -1.0513 N.am    1  UNL1       -0.2770
     28 C          60.9459   92.7913   -0.5351 C.2     1  UNL1        0.2270
     29 O          60.5961   91.3401   -0.3878 O.2     1  UNL1       -0.2748
     30 C          60.2738   95.2116   -1.1985 C.3     1  UNL1        0.0758
     31 C          60.6375   96.3784   -2.0681 C.3     1  UNL1        0.0215
     32 C          60.5160   96.5583   -0.5839 C.3     1  UNL1        0.0215
     33 C          58.5523   93.2784   -1.4203 C.3     1  UNL1        0.1209
     34 C          57.6342   93.8764   -5.2347 C.ar    1  UNL1       -0.0066
     35 C          56.5222   94.8748   -5.1054 C.ar    1  UNL1       -0.0021
     36 C          56.0870   95.3411   -3.7478 C.ar    1  UNL1        0.0109
     37 C          56.7637   94.8090   -2.5194 C.ar    1  UNL1        0.0553
     38 CL         56.3285   95.2753   -1.1619 Cl      1  UNL1       -0.0825
     39 C          57.8756   93.8105   -2.6487 C.ar    1  UNL1        0.0080
     40 C          58.3109   93.3442   -4.0063 C.ar    1  UNL1       -0.0047
     41 C          58.0694   93.4101   -6.5923 C.3     1  UNL1        0.0956
     42 N          57.0647   92.8329   -7.5448 N.3     1  UNL1       -0.2937
     43 H          56.2941   93.4990   -7.5992 H       1  UNL1        0.1236
     44 C          55.4781   91.3239   -6.1463 C.3     1  UNL1        0.0185
     45 C          56.4571   91.4891   -7.2708 C.3     1  UNL1        0.0689
@<TRIPOS>BOND
     1    44    45    1
     2    45    42    1
     3    42    41    1
     4    41    34    1
     5    34    35   ar
     6    35    36   ar
     7    36    37   ar
     8    37    38    1
     9    37    39   ar
    10    39    33    1
    11    33    27    1
    12    27    28   am
    13    28    29    2
    14     1    28    1
    15     1     2    1
    16     2     3    1
    17     3     4    1
    18     4     5    1
    19     5     6    1
    20     6     8    1
    21     8     9   ar
    22     9    10   ar
    23    10    11   ar
    24    11    14    1
    25    14    15    1
    26    15    16    1
    27    16    17    1
    28    17    18    1
    29    18    19   ar
    30    19    20    1
    31    19    21   ar
    32    21    22   ar
    33    22    23    1
    34    22    24   ar
    35    24    25   ar
    36    25    26    1
    37    11    12   ar
    38    12    13   ar
    39    27    30    1
    40    30    31    1
    41    31    32    1
    42    39    40   ar
    43    40    34   ar
    44     6     1    1
    45    13     8   ar
    46    32    30    1
    47    25    18   ar
    48    42    43    1
    49     3     7    1
@<TRIPOS>MOLECULE
*****
 45 49 0 0 0
SMALL
GASTEIGER

@<TRIPOS>ATOM
      1 C          60.9836   88.4392    9.2438 C.3     1  UNL1        0.0964
      2 C          60.0836   89.5310    8.7459 C.3     1  UNL1        0.0780
      3 N          59.0280   89.2256    7.7249 N.3     1  UNL1       -0.2970
      4 C          58.8725   87.8285    7.2018 C.3     1  UNL1        0.0689
      5 C          59.7726   86.7367    7.6997 C.3     1  UNL1        0.0220
      6 C          60.8281   87.0420    8.7207 C.3     1  UNL1        0.0337
      7 H          59.2161   89.8224    6.9194 H       1  UNL1        0.1233
      8 C          61.7281   85.9502    9.2186 C.ar    1  UNL1       -0.0217
      9 C          62.7277   85.3219    8.2934 C.ar    1  UNL1       -0.0012
     10 C          63.6277   84.2301    8.7913 C.ar    1  UNL1        0.0366
     11 C          63.5282   83.7666   10.2144 C.ar    1  UNL1        0.1387
     12 C          62.5287   84.3950   11.1396 C.ar    1  UNL1        0.0366
     13 C          61.6286   85.4868   10.6417 C.ar    1  UNL1       -0.0012
     14 O          64.4283   82.6748   10.7123 O.3     1  UNL1       -0.4714
     15 C          63.8637   81.5530   11.5324 C.3     1  UNL1        0.2525
     16 C          63.9141   81.6197   13.0301 C.3     1  UNL1        0.2525
     17 O          64.7643   82.6540   13.7065 O.3     1  UNL1       -0.4697
     18 C          64.1326   83.6675   14.6141 C.ar    1  UNL1        0.1596
     19 C          62.7366   83.4545   15.1197 C.ar    1  UNL1        0.0921
     20 CL         61.9723   82.2280   14.7178 Cl      1  UNL1       -0.0791
     21 C          62.1048   84.4680   16.0273 C.ar    1  UNL1        0.0103
     22 C          62.8690   85.6945   16.4292 C.ar    1  UNL1       -0.0200
     23 C          62.2372   86.7080   17.3368 C.3     1  UNL1        0.0311
     24 C          64.2651   85.9076   15.9235 C.ar    1  UNL1        0.0103
     25 C          64.8969   84.8941   15.0160 C.ar    1  UNL1        0.0921
     26 CL         66.2929   85.1071   14.5103 Cl      1  UNL1       -0.0791
     27 N          61.6762   89.4761   11.5231 N.am    1  UNL1       -0.2770
     28 C          62.0392   88.7446   10.2649 C.2     1  UNL1        0.2270
     29 O          63.4577   88.3185   10.0277 O.2     1  UNL1       -0.2748
     30 C          60.2577   89.9023   11.7603 C.3     1  UNL1        0.0758
     31 C          58.8954   89.6262   12.3240 C.3     1  UNL1        0.0215
     32 C          59.1632   90.9164   11.6074 C.3     1  UNL1        0.0215
     33 C          62.7318   89.7816   12.5442 C.3     1  UNL1        0.1209
     34 C          65.6760   92.3791   13.1228 C.ar    1  UNL1       -0.0066
     35 C          65.6873   93.0932   11.8036 C.ar    1  UNL1       -0.0021
     36 C          64.7134   92.7034   10.7314 C.ar    1  UNL1        0.0109
     37 C          63.7283   91.5995   10.9783 C.ar    1  UNL1        0.0553
     38 CL         62.7545   91.2097    9.9061 Cl      1  UNL1       -0.0825
     39 C          63.7170   90.8854   12.2973 C.ar    1  UNL1        0.0080
     40 C          64.6908   91.2752   13.3696 C.ar    1  UNL1       -0.0047
     41 C          66.6498   92.7689   14.1950 C.3     1  UNL1        0.0956
     42 N          68.1186   92.5411   13.9930 N.3     1  UNL1       -0.2937
     43 H          68.2269   91.5753   13.6834 H       1  UNL1        0.1236
     44 C          68.9356   93.9381   16.0255 C.3     1  UNL1        0.0185
     45 C          69.0722   92.7397   15.1338 C.3     1  UNL1        0.0689
@<TRIPOS>BOND
     1    44    45    1
     2    45    42    1
     3    42    41    1
     4    41    34    1
     5    34    35   ar
     6    35    36   ar
     7    36    37   ar
     8    37    38    1
     9    37    39   ar
    10    39    33    1
    11    33    27    1
    12    27    28   am
    13    28    29    2
    14     1    28    1
    15     1     2    1
    16     2     3    1
    17     3     4    1
    18     4     5    1
    19     5     6    1
    20     6     8    1
    21     8     9   ar
    22     9    10   ar
    23    10    11   ar
    24    11    14    1
    25    14    15    1
    26    15    16    1
    27    16    17    1
    28    17    18    1
    29    18    19   ar
    30    19    20    1
    31    19    21   ar
    32    21    22   ar
    33    22    23    1
    34    22    24   ar
    35    24    25   ar
    36    25    26    1
    37    11    12   ar
    38    12    13   ar
    39    27    30    1
    40    30    31    1
    41    31    32    1
    42    39    40   ar
    43    40    34   ar
    44     6     1    1
    45    13     8   ar
    46    32    30    1
    47    25    18   ar
    48    42    43    1
    49     3     7    1
@<TRIPOS>MOLECULE
*****
 45 49 0 0 0
SMALL
GASTEIGER

@<TRIPOS>ATOM
      1 C          63.3172   86.9818   12.8982 C.3     1  UNL1        0.0964
      2 C          64.0959   86.4793   14.0776 C.3     1  UNL1        0.0780
      3 N          64.0297   85.0297   14.4575 N.3     1  UNL1       -0.2970
      4 C          63.1847   84.0827   13.6580 C.3     1  UNL1        0.0689
      5 C          62.4060   84.5853   12.4786 C.3     1  UNL1        0.0220
      6 C          62.4723   86.0348   12.0987 C.3     1  UNL1        0.0337
      7 H          63.6863   84.9923   15.4173 H       1  UNL1        0.1233
      8 C          61.6936   86.5374   10.9192 C.ar    1  UNL1       -0.0217
      9 C          62.0305   86.0577    9.5385 C.ar    1  UNL1       -0.0012
     10 C          61.2518   86.5602    8.3591 C.ar    1  UNL1        0.0366
     11 C          60.1362   87.5425    8.5604 C.ar    1  UNL1        0.1387
     12 C          59.7993   88.0222    9.9410 C.ar    1  UNL1        0.0366
     13 C          60.5780   87.5196   11.1205 C.ar    1  UNL1       -0.0012
     14 O          59.3575   88.0451    7.3809 O.3     1  UNL1       -0.4714
     15 C          59.4150   89.4967    7.0076 C.3     1  UNL1        0.2525
     16 C          59.7333   89.8964    5.5974 C.3     1  UNL1        0.2525
     17 O          60.9000   90.7971    5.3183 O.3     1  UNL1       -0.4697
     18 C          60.9243   91.6278    4.0696 C.ar    1  UNL1        0.1596
     19 C          59.7185   92.4298    3.6787 C.ar    1  UNL1        0.0921
     20 CL         58.4884   92.4010    4.5366 Cl      1  UNL1       -0.0791
     21 C          59.7428   93.2605    2.4300 C.ar    1  UNL1        0.0103
     22 C          60.9729   93.2892    1.5721 C.ar    1  UNL1       -0.0200
     23 C          60.9972   94.1199    0.3234 C.3     1  UNL1        0.0311
     24 C          62.1788   92.4872    1.9629 C.ar    1  UNL1        0.0103
     25 C          62.1545   91.6565    3.2117 C.ar    1  UNL1        0.0921
     26 CL         63.3603   90.8545    3.6025 Cl      1  UNL1       -0.0791
     27 N          63.4071   89.4860   13.5847 N.am    1  UNL1       -0.2770
     28 C          63.3835   88.4315   12.5183 C.2     1  UNL1        0.2270
     29 O          63.4261   88.8265   11.0718 O.2     1  UNL1       -0.2748
     30 C          63.3645   89.0909   15.0311 C.3     1  UNL1        0.0758
     31 C          63.5160   88.0471   16.0977 C.3     1  UNL1        0.0215
     32 C          63.1391   89.4505   16.4698 C.3     1  UNL1        0.0215
     33 C          63.4734   90.9356   13.2048 C.3     1  UNL1        0.1209
     34 C          67.2498   92.1170   12.8990 C.ar    1  UNL1       -0.0066
     35 C          67.2696   92.6418   11.4939 C.ar    1  UNL1       -0.0021
     36 C          66.0242   92.5979   10.6592 C.ar    1  UNL1        0.0109
     37 C          64.7587   92.0292   11.2295 C.ar    1  UNL1        0.0553
     38 CL         63.5132   91.9853   10.3948 Cl      1  UNL1       -0.0825
     39 C          64.7388   91.5043   12.6345 C.ar    1  UNL1        0.0080
     40 C          65.9843   91.5482   13.4693 C.ar    1  UNL1       -0.0047
     41 C          68.4953   92.1608   13.7337 C.3     1  UNL1        0.0956
     42 N          68.4684   91.6613   15.1478 N.3     1  UNL1       -0.2937
     43 H          67.6260   91.0942   15.2439 H       1  UNL1        0.1236
     44 C          68.8228   94.0732   16.0463 C.3     1  UNL1        0.0185
     45 C          68.4663   92.6364   16.2878 C.3     1  UNL1        0.0689
@<TRIPOS>BOND
     1    44    45    1
     2    45    42    1
     3    42    41    1
     4    41    34    1
     5    34    35   ar
     6    35    36   ar
     7    36    37   ar
     8    37    38    1
     9    37    39   ar
    10    39    33    1
    11    33    27    1
    12    27    28   am
    13    28    29    2
    14     1    28    1
    15     1     2    1
    16     2     3    1
    17     3     4    1
    18     4     5    1
    19     5     6    1
    20     6     8    1
    21     8     9   ar
    22     9    10   ar
    23    10    11   ar
    24    11    14    1
    25    14    15    1
    26    15    16    1
    27    16    17    1
    28    17    18    1
    29    18    19   ar
    30    19    20    1
    31    19    21   ar
    32    21    22   ar
    33    22    23    1
    34    22    24   ar
    35    24    25   ar
    36    25    26    1
    37    11    12   ar
    38    12    13   ar
    39    27    30    1
    40    30    31    1
    41    31    32    1
    42    39    40   ar
    43    40    34   ar
    44     6     1    1
    45    13     8   ar
    46    32    30    1
    47    25    18   ar
    48    42    43    1
    49     3     7    1
@<TRIPOS>MOLECULE
*****
 45 49 0 0 0
SMALL
GASTEIGER

@<TRIPOS>ATOM
      1 C          62.4566   93.4755   -0.3198 C.3     1  UNL1        0.0964
      2 C          63.3265   94.0516   -1.3974 C.3     1  UNL1        0.0780
      3 N          64.6636   94.6359   -1.0497 N.3     1  UNL1       -0.2970
      4 C          65.1307   94.6439    0.3756 C.3     1  UNL1        0.0689
      5 C          64.2608   94.0678    1.4533 C.3     1  UNL1        0.0220
      6 C          62.9238   93.4835    1.1056 C.3     1  UNL1        0.0337
      7 H          64.6504   95.6072   -1.3607 H       1  UNL1        0.1233
      8 C          62.0539   92.9073    2.1832 C.ar    1  UNL1       -0.0217
      9 C          60.6672   93.4396    2.3924 C.ar    1  UNL1       -0.0012
     10 C          59.7973   92.8634    3.4700 C.ar    1  UNL1        0.0366
     11 C          60.3141   91.7550    4.3385 C.ar    1  UNL1        0.1387
     12 C          61.7008   91.2228    4.1294 C.ar    1  UNL1        0.0366
     13 C          62.5707   91.7990    3.0517 C.ar    1  UNL1       -0.0012
     14 O          59.4442   91.1788    5.4162 O.3     1  UNL1       -0.4714
     15 C          59.5846   89.7362    5.8021 C.3     1  UNL1        0.2525
     16 C          59.1675   89.2815    7.1693 C.3     1  UNL1        0.2525
     17 O          59.9812   89.6677    8.3688 O.3     1  UNL1       -0.4697
     18 C          60.6521   88.6087    9.1925 C.ar    1  UNL1        0.1596
     19 C          61.7795   88.9754   10.1115 C.ar    1  UNL1        0.0921
     20 CL         62.2359   90.4010   10.2069 Cl      1  UNL1       -0.0791
     21 C          62.4504   87.9164   10.9352 C.ar    1  UNL1        0.0103
     22 C          61.9940   86.4907   10.8399 C.ar    1  UNL1       -0.0200
     23 C          62.6649   85.4318   11.6635 C.3     1  UNL1        0.0311
     24 C          60.8666   86.1240    9.9208 C.ar    1  UNL1        0.0103
     25 C          60.1957   87.1830    9.0971 C.ar    1  UNL1        0.0921
     26 CL         59.0684   86.8163    8.1781 Cl      1  UNL1       -0.0791
     27 N          60.0595   93.7569   -1.2814 N.am    1  UNL1       -0.2770
     28 C          61.1195   92.8912   -0.6675 C.2     1  UNL1        0.2270
     29 O          60.8425   91.4412   -0.4014 O.2     1  UNL1       -0.2748
     30 C          60.3365   95.2069   -1.5475 C.3     1  UNL1        0.0758
     31 C          60.8832   96.2828   -2.4383 C.3     1  UNL1        0.0215
     32 C          60.2696   96.6424   -1.1176 C.3     1  UNL1        0.0215
     33 C          58.7224   93.1727   -1.6291 C.3     1  UNL1        0.1209
     34 C          57.5543   93.8935   -5.3528 C.ar    1  UNL1       -0.0066
     35 C          56.3898   94.8080   -5.1126 C.ar    1  UNL1       -0.0021
     36 C          56.0028   95.1773   -3.7112 C.ar    1  UNL1        0.0109
     37 C          56.7804   94.6322   -2.5501 C.ar    1  UNL1        0.0553
     38 CL         56.3935   95.0016   -1.1487 Cl      1  UNL1       -0.0825
     39 C          57.9449   93.7178   -2.7903 C.ar    1  UNL1        0.0080
     40 C          58.3318   93.3484   -4.1917 C.ar    1  UNL1       -0.0047
     41 C          57.9412   93.5241   -6.7542 C.3     1  UNL1        0.0956
     42 N          59.3034   93.8767   -7.2738 N.3     1  UNL1       -0.2937
     43 H          59.9788   93.3964   -6.6793 H       1  UNL1        0.1236
     44 C          60.9245   95.7780   -6.5616 C.3     1  UNL1        0.0185
     45 C          59.7313   95.3128   -7.3425 C.3     1  UNL1        0.0689
@<TRIPOS>BOND
     1    44    45    1
     2    45    42    1
     3    42    41    1
     4    41    34    1
     5    34    35   ar
     6    35    36   ar
     7    36    37   ar
     8    37    38    1
     9    37    39   ar
    10    39    33    1
    11    33    27    1
    12    27    28   am
    13    28    29    2
    14     1    28    1
    15     1     2    1
    16     2     3    1
    17     3     4    1
    18     4     5    1
    19     5     6    1
    20     6     8    1
    21     8     9   ar
    22     9    10   ar
    23    10    11   ar
    24    11    14    1
    25    14    15    1
    26    15    16    1
    27    16    17    1
    28    17    18    1
    29    18    19   ar
    30    19    20    1
    31    19    21   ar
    32    21    22   ar
    33    22    23    1
    34    22    24   ar
    35    24    25   ar
    36    25    26    1
    37    11    12   ar
    38    12    13   ar
    39    27    30    1
    40    30    31    1
    41    31    32    1
    42    39    40   ar
    43    40    34   ar
    44     6     1    1
    45    13     8   ar
    46    32    30    1
    47    25    18   ar
    48    42    43    1
    49     3     7    1
@<TRIPOS>MOLECULE
*****
 45 49 0 0 0
SMALL
GASTEIGER

@<TRIPOS>ATOM
      1 C          63.4195   86.9592   13.0125 C.3     1  UNL1        0.0964
      2 C          64.2031   86.4462   14.1842 C.3     1  UNL1        0.0780
      3 N          64.2144   84.9786   14.4942 N.3     1  UNL1       -0.2970
      4 C          63.4421   84.0242   13.6325 C.3     1  UNL1        0.0689
      5 C          62.6586   84.5372   12.4608 C.3     1  UNL1        0.0220
      6 C          62.6473   86.0048   12.1508 C.3     1  UNL1        0.0337
      7 H          63.8550   84.8754   15.4432 H       1  UNL1        0.1233
      8 C          61.8637   86.5178   10.9792 C.ar    1  UNL1       -0.0217
      9 C          60.6966   87.4337   11.2005 C.ar    1  UNL1       -0.0012
     10 C          59.9131   87.9468   10.0288 C.ar    1  UNL1        0.0366
     11 C          60.2967   87.5440    8.6358 C.ar    1  UNL1        0.1387
     12 C          61.4638   86.6281    8.4144 C.ar    1  UNL1        0.0366
     13 C          62.2473   86.1151    9.5861 C.ar    1  UNL1       -0.0012
     14 O          59.5131   88.0571    7.4641 O.3     1  UNL1       -0.4714
     15 C          59.5188   89.5219    7.1417 C.3     1  UNL1        0.2525
     16 C          59.7206   89.9777    5.7269 C.3     1  UNL1        0.2525
     17 O          60.9126   90.8165    5.3720 O.3     1  UNL1       -0.4697
     18 C          60.9242   91.6002    4.0931 C.ar    1  UNL1        0.1596
     19 C          62.1411   91.5869    3.2163 C.ar    1  UNL1        0.0921
     20 CL         63.3465   90.7899    3.6185 Cl      1  UNL1       -0.0791
     21 C          62.1527   92.3706    1.9374 C.ar    1  UNL1        0.0103
     22 C          60.9473   93.1675    1.5352 C.ar    1  UNL1       -0.0200
     23 C          60.9589   93.9512    0.2563 C.3     1  UNL1        0.0311
     24 C          59.7302   93.1808    2.4120 C.ar    1  UNL1        0.0103
     25 C          59.7187   92.3971    3.6909 C.ar    1  UNL1        0.0921
     26 CL         58.5017   92.4104    4.5677 Cl      1  UNL1       -0.0791
     27 N          63.3486   89.4285   13.8175 N.am    1  UNL1       -0.2770
     28 C          63.4083   88.4269   12.7025 C.2     1  UNL1        0.2270
     29 O          63.4567   88.8928   11.2776 O.2     1  UNL1       -0.2748
     30 C          63.3002   88.9625   15.2425 C.3     1  UNL1        0.0758
     31 C          63.4523   87.8685   16.2573 C.3     1  UNL1        0.0215
     32 C          63.0642   89.2495   16.6957 C.3     1  UNL1        0.0215
     33 C          63.3374   90.8961   13.5075 C.3     1  UNL1        0.1209
     34 C          66.3081   92.6298   11.5279 C.ar    1  UNL1       -0.0066
     35 C          67.1986   93.0465   12.6608 C.ar    1  UNL1       -0.0021
     36 C          66.8020   92.7463   14.0759 C.ar    1  UNL1        0.0109
     37 C          65.5149   92.0295   14.3582 C.ar    1  UNL1        0.0553
     38 CL         65.1184   91.7293   15.7733 Cl      1  UNL1       -0.0825
     39 C          64.6245   91.6129   13.2253 C.ar    1  UNL1        0.0080
     40 C          65.0210   91.9130   11.8101 C.ar    1  UNL1       -0.0047
     41 C          66.7047   92.9300   10.1127 C.3     1  UNL1        0.0956
     42 N          66.2226   94.1858    9.4490 N.3     1  UNL1       -0.2937
     43 H          65.5126   93.9071    8.7718 H       1  UNL1        0.1236
     44 C          67.2771   96.5281    9.0592 C.3     1  UNL1        0.0185
     45 C          67.1922   95.0692    8.7212 C.3     1  UNL1        0.0689
@<TRIPOS>BOND
     1    44    45    1
     2    45    42    1
     3    42    41    1
     4    41    34    1
     5    34    35   ar
     6    35    36   ar
     7    36    37   ar
     8    37    38    1
     9    37    39   ar
    10    39    33    1
    11    33    27    1
    12    27    28   am
    13    28    29    2
    14     1    28    1
    15     1     2    1
    16     2     3    1
    17     3     4    1
    18     4     5    1
    19     5     6    1
    20     6     8    1
    21     8     9   ar
    22     9    10   ar
    23    10    11   ar
    24    11    14    1
    25    14    15    1
    26    15    16    1
    27    16    17    1
    28    17    18    1
    29    18    19   ar
    30    19    20    1
    31    19    21   ar
    32    21    22   ar
    33    22    23    1
    34    22    24   ar
    35    24    25   ar
    36    25    26    1
    37    11    12   ar
    38    12    13   ar
    39    27    30    1
    40    30    31    1
    41    31    32    1
    42    39    40   ar
    43    40    34   ar
    44     6     1    1
    45    13     8   ar
    46    32    30    1
    47    25    18   ar
    48    42    43    1
    49     3     7    1
