@<TRIPOS>MOLECULE
*****
 41 45 0 0 0
SMALL
GASTEIGER

@<TRIPOS>ATOM
      1 C          60.1147   88.7535    8.0119 C.ar    1  UNL1        0.0014
      2 C          60.0794   87.2654    7.8270 C.ar    1  UNL1        0.0032
      3 C          60.4491   86.3594    8.9640 C.ar    1  UNL1        0.0388
      4 C          60.8541   86.9416   10.2857 C.ar    1  UNL1        0.1586
      5 C          60.8894   88.4298   10.4705 C.ar    1  UNL1        0.0865
      6 C          60.5197   89.3357    9.3336 C.ar    1  UNL1        0.0178
      7 C          59.0057   91.4713    4.6010 C.ar    1  UNL1        0.1397
      8 C          60.4454   91.1353    4.8547 C.ar    1  UNL1        0.0369
      9 C          60.8151   90.2294    5.9916 C.ar    1  UNL1        0.0031
     10 C          59.7450   89.6594    6.8749 C.ar    1  UNL1        0.0003
     11 C          58.3053   89.9954    6.6213 C.ar    1  UNL1        0.0042
     12 C          57.9357   90.9014    5.4843 C.ar    1  UNL1        0.0479
     13 C          56.4960   91.2374    5.2306 C.2     1  UNL1        0.0758
     14 O          56.1378   92.4917    4.4900 O.co2   1  UNL1       -0.5445
     15 O          55.4145   90.3191    5.7176 O.co2   1  UNL1       -0.5445
     16 C          59.7028   92.9182    2.5588 C.3     1  UNL1        0.2525
     17 O          58.6361   92.3772    3.4641 O.3     1  UNL1       -0.4714
     18 N          61.2944   89.0121   11.7923 N.am    1  UNL1       -0.2656
     19 C          62.5924   89.7529   11.9194 C.2     1  UNL1        0.3082
     20 O          63.4855   89.9114   10.7247 O.2     1  UNL1       -0.2521
     21 N          62.9974   90.3351   13.2411 N.am    1  UNL1       -0.2681
     22 H          60.7082   88.9080   12.5764 H       1  UNL1        0.1565
     23 H          62.4113   90.2310   14.0252 H       1  UNL1        0.1564
     24 C          64.2955   91.0759   13.3682 C.ar    1  UNL1        0.0513
     25 C          65.2503   90.7320   14.4728 C.ar    1  UNL1        0.0147
     26 C          66.5484   91.4729   14.5999 C.ar    1  UNL1        0.0010
     27 C          66.8917   92.5575   13.6224 C.ar    1  UNL1       -0.0042
     28 C          65.9369   92.9014   12.5177 C.ar    1  UNL1       -0.0206
     29 C          66.2802   93.9861   11.5402 C.3     1  UNL1        0.0311
     30 C          64.6389   92.1606   12.3906 C.ar    1  UNL1        0.0105
     31 O          61.2237   86.0357   11.4227 O.3     1  UNL1       -0.4526
     32 C          62.2801   84.9877   11.2336 C.ar    1  UNL1        0.1410
     33 C          62.8666   84.7507    9.8736 C.ar    1  UNL1        0.0371
     34 C          63.9230   83.7027    9.6845 C.ar    1  UNL1        0.0028
     35 C          64.3929   82.8917   10.8556 C.ar    1  UNL1       -0.0044
     36 C          63.8065   83.1287   12.2158 C.ar    1  UNL1       -0.0232
     37 C          62.7501   84.1767   12.4048 C.ar    1  UNL1        0.0084
     38 C          62.1636   84.4137   13.7649 C.3     1  UNL1        0.0291
     39 C          62.6336   83.6028   14.9359 C.3     1  UNL1        0.0051
     40 C          63.6900   82.5548   14.7469 C.3     1  UNL1        0.0050
     41 C          64.2764   82.3177   13.3868 C.3     1  UNL1        0.0261
@<TRIPOS>UNITY_ATOM_ATTR
14 1
charge -1
@<TRIPOS>BOND
     1    16    17    1
     2    17     7    1
     3     7     8   ar
     4     8     9   ar
     5     9    10   ar
     6    10     1    1
     7     1     2   ar
     8     2     3   ar
     9     3     4   ar
    10     4    31    1
    11    31    32    1
    12    32    33   ar
    13    33    34   ar
    14    34    35   ar
    15    35    36   ar
    16    36    37   ar
    17    37    38    1
    18    38    39    1
    19    39    40    1
    20    40    41    1
    21     4     5   ar
    22     5    18    1
    23    18    19   am
    24    19    20    2
    25    19    21   am
    26    21    24    1
    27    24    25   ar
    28    25    26   ar
    29    26    27   ar
    30    27    28   ar
    31    28    29    1
    32    28    30   ar
    33     5     6   ar
    34    10    11   ar
    35    11    12   ar
    36    12    13    1
    37    13    14   ar
    38    13    15   ar
    39    12     7   ar
    40     6     1   ar
    41    37    32   ar
    42    30    24   ar
    43    41    36    1
    44    18    22    1
    45    21    23    1
@<TRIPOS>MOLECULE
*****
 41 45 0 0 0
SMALL
GASTEIGER

@<TRIPOS>ATOM
      1 C          60.0318   89.0375    7.5203 C.ar    1  UNL1        0.0014
      2 C          59.9385   87.5605    7.2758 C.ar    1  UNL1        0.0032
      3 C          60.2235   86.5965    8.3892 C.ar    1  UNL1        0.0388
      4 C          60.6017   87.1095    9.7470 C.ar    1  UNL1        0.1586
      5 C          60.6950   88.5866    9.9915 C.ar    1  UNL1        0.0865
      6 C          60.4100   89.5505    8.8781 C.ar    1  UNL1        0.0178
      7 C          59.1767   91.9293    4.1802 C.ar    1  UNL1        0.1397
      8 C          58.0565   91.4252    5.0409 C.ar    1  UNL1        0.0369
      9 C          58.3415   90.4612    6.1543 C.ar    1  UNL1        0.0031
     10 C          59.7468   90.0014    6.4069 C.ar    1  UNL1        0.0003
     11 C          60.8670   90.5055    5.5462 C.ar    1  UNL1        0.0042
     12 C          60.5820   91.4695    4.4328 C.ar    1  UNL1        0.0479
     13 C          61.7022   91.9736    3.5720 C.2     1  UNL1        0.0758
     14 O          63.0203   91.2578    3.5613 O.co2   1  UNL1       -0.5445
     15 O          61.5043   93.1936    2.7220 O.co2   1  UNL1       -0.5445
     16 C          58.9596   92.4332    1.6407 C.3     1  UNL1        0.2525
     17 O          58.8918   92.8932    3.0668 O.3     1  UNL1       -0.4714
     18 N          61.0733   89.0996   11.3493 N.am    1  UNL1       -0.2656
     19 C          62.3894   89.7906   11.5501 C.2     1  UNL1        0.3082
     20 O          63.3272   89.9686   10.3930 O.2     1  UNL1       -0.2521
     21 N          62.7677   90.3036   12.9079 N.am    1  UNL1       -0.2681
     22 H          60.4577   88.9828   12.1087 H       1  UNL1        0.1565
     23 H          62.1521   90.1868   13.6673 H       1  UNL1        0.1564
     24 C          64.0838   90.9946   13.1087 C.ar    1  UNL1        0.0513
     25 C          64.9702   90.6018   14.2532 C.ar    1  UNL1        0.0147
     26 C          66.2864   91.2929   14.4540 C.ar    1  UNL1        0.0010
     27 C          66.7160   92.3767   13.5102 C.ar    1  UNL1       -0.0042
     28 C          65.8296   92.7695   12.3657 C.ar    1  UNL1       -0.0206
     29 C          66.2592   93.8534   11.4220 C.3     1  UNL1        0.0311
     30 C          64.5135   92.0786   12.1649 C.ar    1  UNL1        0.0105
     31 O          60.8867   86.1456   10.8603 O.3     1  UNL1       -0.4526
     32 C          62.0526   85.2071   10.7599 C.ar    1  UNL1        0.1410
     33 C          62.6607   84.9070    9.4220 C.ar    1  UNL1        0.0371
     34 C          63.8265   83.9686    9.3215 C.ar    1  UNL1        0.0028
     35 C          64.3843   83.3303   10.5590 C.ar    1  UNL1       -0.0044
     36 C          63.7762   83.6304   11.8970 C.ar    1  UNL1       -0.0232
     37 C          62.6103   84.5688   11.9975 C.ar    1  UNL1        0.0084
     38 C          62.0023   84.8690   13.3354 C.3     1  UNL1        0.0291
     39 C          62.5600   84.2306   14.5729 C.3     1  UNL1        0.0051
     40 C          63.7259   83.2922   14.4724 C.3     1  UNL1        0.0050
     41 C          64.3340   82.9921   13.1345 C.3     1  UNL1        0.0261
@<TRIPOS>UNITY_ATOM_ATTR
14 1
charge -1
@<TRIPOS>BOND
     1    16    17    1
     2    17     7    1
     3     7     8   ar
     4     8     9   ar
     5     9    10   ar
     6    10     1    1
     7     1     2   ar
     8     2     3   ar
     9     3     4   ar
    10     4    31    1
    11    31    32    1
    12    32    33   ar
    13    33    34   ar
    14    34    35   ar
    15    35    36   ar
    16    36    37   ar
    17    37    38    1
    18    38    39    1
    19    39    40    1
    20    40    41    1
    21     4     5   ar
    22     5    18    1
    23    18    19   am
    24    19    20    2
    25    19    21   am
    26    21    24    1
    27    24    25   ar
    28    25    26   ar
    29    26    27   ar
    30    27    28   ar
    31    28    29    1
    32    28    30   ar
    33     5     6   ar
    34    10    11   ar
    35    11    12   ar
    36    12    13    1
    37    13    14   ar
    38    13    15   ar
    39    12     7   ar
    40     6     1   ar
    41    37    32   ar
    42    30    24   ar
    43    41    36    1
    44    18    22    1
    45    21    23    1
@<TRIPOS>MOLECULE
*****
 41 45 0 0 0
SMALL
GASTEIGER

@<TRIPOS>ATOM
      1 C          63.7728   86.4799   14.0859 C.ar    1  UNL1        0.0014
      2 C          64.2171   87.1309   15.3622 C.ar    1  UNL1        0.0032
      3 C          64.1919   88.6253   15.4902 C.ar    1  UNL1        0.0388
      4 C          63.7224   89.4686   14.3420 C.ar    1  UNL1        0.1586
      5 C          63.2782   88.8175   13.0657 C.ar    1  UNL1        0.0865
      6 C          63.3034   87.3232   12.9377 C.ar    1  UNL1        0.0178
      7 C          63.8485   81.9970   13.7021 C.ar    1  UNL1        0.1397
      8 C          63.8169   82.6330   15.0602 C.ar    1  UNL1        0.0369
      9 C          63.7917   84.1273   15.1881 C.ar    1  UNL1        0.0031
     10 C          63.7981   84.9857   13.9580 C.ar    1  UNL1        0.0003
     11 C          63.8297   84.3496   12.5999 C.ar    1  UNL1        0.0042
     12 C          63.8549   82.8553   12.4719 C.ar    1  UNL1        0.0479
     13 C          63.8865   82.2193   11.1138 C.2     1  UNL1        0.0758
     14 O          62.8888   81.1566   10.7599 O.co2   1  UNL1       -0.5445
     15 O          64.9159   82.6460   10.1096 O.co2   1  UNL1       -0.5445
     16 C          62.6002   79.7185   13.6894 C.3     1  UNL1        0.2525
     17 O          63.8737   80.5027   13.5741 O.3     1  UNL1       -0.4714
     18 N          62.8087   89.6608   11.9174 N.am    1  UNL1       -0.2656
     19 C          61.8816   89.0809   10.8908 C.2     1  UNL1        0.3082
     20 O          61.4239   87.6576   11.0124 O.2     1  UNL1       -0.2521
     21 N          61.4122   89.9242    9.7425 N.am    1  UNL1       -0.2681
     22 H          63.1092   90.5950   11.8376 H       1  UNL1        0.1565
     23 H          61.7126   90.8583    9.6627 H       1  UNL1        0.1564
     24 C          60.4850   89.3442    8.7159 C.ar    1  UNL1        0.0513
     25 C          60.0385   87.9168    8.8297 C.ar    1  UNL1        0.0147
     26 C          59.1113   87.3368    7.8030 C.ar    1  UNL1        0.0010
     27 C          58.6307   88.1843    6.6626 C.ar    1  UNL1       -0.0042
     28 C          59.0772   89.6118    6.5487 C.ar    1  UNL1       -0.0206
     29 C          58.5966   90.4593    5.4083 C.3     1  UNL1        0.0311
     30 C          60.0044   90.1917    7.5754 C.ar    1  UNL1        0.0105
     31 O          63.6972   90.9629   14.4699 O.3     1  UNL1       -0.4526
     32 C          64.9741   91.7449   14.3808 C.ar    1  UNL1        0.1410
     33 C          65.7861   91.9985   15.6162 C.ar    1  UNL1        0.0371
     34 C          67.0630   92.7806   15.5270 C.ar    1  UNL1        0.0028
     35 C          67.5279   93.3090   14.2024 C.ar    1  UNL1       -0.0044
     36 C          66.7158   93.0555   12.9669 C.ar    1  UNL1       -0.0232
     37 C          65.4390   92.2734   13.0561 C.ar    1  UNL1        0.0084
     38 C          64.6269   92.0198   11.8207 C.3     1  UNL1        0.0291
     39 C          65.0918   92.5483   10.4961 C.3     1  UNL1        0.0051
     40 C          66.3687   93.3303   10.4069 C.3     1  UNL1        0.0050
     41 C          67.1807   93.5839   11.6423 C.3     1  UNL1        0.0261
@<TRIPOS>UNITY_ATOM_ATTR
14 1
charge -1
@<TRIPOS>BOND
     1    16    17    1
     2    17     7    1
     3     7     8   ar
     4     8     9   ar
     5     9    10   ar
     6    10     1    1
     7     1     2   ar
     8     2     3   ar
     9     3     4   ar
    10     4    31    1
    11    31    32    1
    12    32    33   ar
    13    33    34   ar
    14    34    35   ar
    15    35    36   ar
    16    36    37   ar
    17    37    38    1
    18    38    39    1
    19    39    40    1
    20    40    41    1
    21     4     5   ar
    22     5    18    1
    23    18    19   am
    24    19    20    2
    25    19    21   am
    26    21    24    1
    27    24    25   ar
    28    25    26   ar
    29    26    27   ar
    30    27    28   ar
    31    28    29    1
    32    28    30   ar
    33     5     6   ar
    34    10    11   ar
    35    11    12   ar
    36    12    13    1
    37    13    14   ar
    38    13    15   ar
    39    12     7   ar
    40     6     1   ar
    41    37    32   ar
    42    30    24   ar
    43    41    36    1
    44    18    22    1
    45    21    23    1
@<TRIPOS>MOLECULE
*****
 41 45 0 0 0
SMALL
GASTEIGER

@<TRIPOS>ATOM
      1 C          63.7513   86.6190   14.0101 C.ar    1  UNL1        0.0014
      2 C          64.1610   87.3341   15.2633 C.ar    1  UNL1        0.0032
      3 C          64.1637   88.8336   15.3046 C.ar    1  UNL1        0.0388
      4 C          63.7567   89.6179   14.0925 C.ar    1  UNL1        0.1586
      5 C          63.3469   88.9027   12.8391 C.ar    1  UNL1        0.0865
      6 C          63.3443   87.4033   12.7980 C.ar    1  UNL1        0.0178
      7 C          63.7433   82.1207   13.8866 C.ar    1  UNL1        0.1397
      8 C          63.6992   82.8349   15.2049 C.ar    1  UNL1        0.0369
      9 C          63.7019   84.3343   15.2461 C.ar    1  UNL1        0.0031
     10 C          63.7486   85.1196   13.9689 C.ar    1  UNL1        0.0003
     11 C          63.7927   84.4055   12.6505 C.ar    1  UNL1        0.0042
     12 C          63.7900   82.9060   12.6094 C.ar    1  UNL1        0.0479
     13 C          63.8340   82.1918   11.2911 C.2     1  UNL1        0.0758
     14 O          64.8946   82.5348   10.2873 O.co2   1  UNL1       -0.5445
     15 O          62.8174   81.1346   10.9764 O.co2   1  UNL1       -0.5445
     16 C          62.4402   79.8736   13.8367 C.3     1  UNL1        0.2525
     17 O          63.7406   80.6213   13.8454 O.3     1  UNL1       -0.4714
     18 N          62.9399   89.6871   11.6271 N.am    1  UNL1       -0.2656
     19 C          61.9233   89.1262   10.6774 C.2     1  UNL1        0.3082
     20 O          61.3138   87.7810   10.9398 O.2     1  UNL1       -0.2521
     21 N          61.5163   89.9105    9.4653 N.am    1  UNL1       -0.2681
     22 H          63.3400   90.5700   11.4548 H       1  UNL1        0.1565
     23 H          61.9164   90.7934    9.2931 H       1  UNL1        0.1564
     24 C          60.4997   89.3497    8.5156 C.ar    1  UNL1        0.0513
     25 C          60.0316   87.9328    8.6688 C.ar    1  UNL1        0.0147
     26 C          59.0150   87.3720    7.7190 C.ar    1  UNL1        0.0010
     27 C          58.4665   88.2279    6.6161 C.ar    1  UNL1       -0.0042
     28 C          58.9346   89.6448    6.4629 C.ar    1  UNL1       -0.0206
     29 C          58.3862   90.5007    5.3600 C.3     1  UNL1        0.0311
     30 C          59.9512   90.2056    7.4126 C.ar    1  UNL1        0.0105
     31 O          63.7594   91.1173   14.1337 O.3     1  UNL1       -0.4526
     32 C          64.8770   91.8833   13.4901 C.ar    1  UNL1        0.1410
     33 C          64.8253   92.1955   12.0239 C.ar    1  UNL1        0.0371
     34 C          65.9429   92.9615   11.3803 C.ar    1  UNL1        0.0028
     35 C          67.1122   93.4152   12.2030 C.ar    1  UNL1       -0.0044
     36 C          67.1640   93.1030   13.6692 C.ar    1  UNL1       -0.0232
     37 C          66.0463   92.3371   14.3128 C.ar    1  UNL1        0.0084
     38 C          66.0980   92.0248   15.7790 C.3     1  UNL1        0.0291
     39 C          67.2673   92.4786   16.6016 C.3     1  UNL1        0.0051
     40 C          68.3850   93.2446   15.9581 C.3     1  UNL1        0.0050
     41 C          68.3333   93.5568   14.4919 C.3     1  UNL1        0.0261
@<TRIPOS>UNITY_ATOM_ATTR
14 1
charge -1
@<TRIPOS>BOND
     1    16    17    1
     2    17     7    1
     3     7     8   ar
     4     8     9   ar
     5     9    10   ar
     6    10     1    1
     7     1     2   ar
     8     2     3   ar
     9     3     4   ar
    10     4    31    1
    11    31    32    1
    12    32    33   ar
    13    33    34   ar
    14    34    35   ar
    15    35    36   ar
    16    36    37   ar
    17    37    38    1
    18    38    39    1
    19    39    40    1
    20    40    41    1
    21     4     5   ar
    22     5    18    1
    23    18    19   am
    24    19    20    2
    25    19    21   am
    26    21    24    1
    27    24    25   ar
    28    25    26   ar
    29    26    27   ar
    30    27    28   ar
    31    28    29    1
    32    28    30   ar
    33     5     6   ar
    34    10    11   ar
    35    11    12   ar
    36    12    13    1
    37    13    14   ar
    38    13    15   ar
    39    12     7   ar
    40     6     1   ar
    41    37    32   ar
    42    30    24   ar
    43    41    36    1
    44    18    22    1
    45    21    23    1
@<TRIPOS>MOLECULE
*****
 41 45 0 0 0
SMALL
GASTEIGER

@<TRIPOS>ATOM
      1 C          60.0541   89.1448    7.4236 C.ar    1  UNL1        0.0014
      2 C          59.1118   88.0076    7.6857 C.ar    1  UNL1        0.0032
      3 C          59.3882   87.0470    8.8043 C.ar    1  UNL1        0.0388
      4 C          60.6069   87.2238    9.6607 C.ar    1  UNL1        0.1586
      5 C          61.5493   88.3611    9.3985 C.ar    1  UNL1        0.0865
      6 C          61.2729   89.3215    8.2800 C.ar    1  UNL1        0.0178
      7 C          59.2247   92.0261    4.0681 C.ar    1  UNL1        0.1397
      8 C          58.0978   91.5239    4.9212 C.ar    1  UNL1        0.0369
      9 C          58.3742   90.5635    6.0397 C.ar    1  UNL1        0.0031
     10 C          59.7777   90.1052    6.3051 C.ar    1  UNL1        0.0003
     11 C          60.9046   90.6074    5.4520 C.ar    1  UNL1        0.0042
     12 C          60.6281   91.5679    4.3335 C.ar    1  UNL1        0.0479
     13 C          61.7550   92.0701    3.4804 C.2     1  UNL1        0.0758
     14 O          61.5760   93.3095    2.6547 O.co2   1  UNL1       -0.5445
     15 O          63.0611   91.3329    3.4530 O.co2   1  UNL1       -0.5445
     16 C          58.9686   92.5082    1.5280 C.3     1  UNL1        0.2525
     17 O          58.9483   92.9866    2.9496 O.3     1  UNL1       -0.4714
     18 N          62.7681   88.5378   10.2549 N.am    1  UNL1       -0.2656
     19 C          62.6207   88.8869   11.7062 C.2     1  UNL1        0.3082
     20 O          61.2546   89.0593   12.3011 O.2     1  UNL1       -0.2521
     21 N          63.8395   89.0637   12.5625 N.am    1  UNL1       -0.2681
     22 H          63.6647   88.4247    9.8644 H       1  UNL1        0.1565
     23 H          64.7361   88.9506   12.1720 H       1  UNL1        0.1564
     24 C          63.6921   89.4128   14.0139 C.ar    1  UNL1        0.0513
     25 C          63.8607   90.8336   14.4644 C.ar    1  UNL1        0.0147
     26 C          63.7134   91.1827   15.9158 C.ar    1  UNL1        0.0010
     27 C          63.3974   90.1110   16.9166 C.ar    1  UNL1       -0.0042
     28 C          63.2289   88.6902   16.4661 C.ar    1  UNL1       -0.0206
     29 C          62.9130   87.6186   17.4669 C.3     1  UNL1        0.0311
     30 C          63.3762   88.3411   15.0148 C.ar    1  UNL1        0.0105
     31 O          60.8834   86.2634   10.7792 O.3     1  UNL1       -0.4526
     32 C          62.0179   85.2885   10.6675 C.ar    1  UNL1        0.1410
     33 C          62.5680   84.9292    9.3191 C.ar    1  UNL1        0.0371
     34 C          63.7025   83.9543    9.2073 C.ar    1  UNL1        0.0028
     35 C          64.2869   83.3387   10.4440 C.ar    1  UNL1       -0.0044
     36 C          63.7368   83.6979   11.7925 C.ar    1  UNL1       -0.0232
     37 C          62.6023   84.6728   11.9042 C.ar    1  UNL1        0.0084
     38 C          62.0521   85.0321   13.2526 C.3     1  UNL1        0.0291
     39 C          62.6365   84.4165   14.4893 C.3     1  UNL1        0.0051
     40 C          63.7710   83.4416   14.3776 C.3     1  UNL1        0.0050
     41 C          64.3211   83.0823   13.0292 C.3     1  UNL1        0.0261
@<TRIPOS>UNITY_ATOM_ATTR
14 1
charge -1
@<TRIPOS>BOND
     1    16    17    1
     2    17     7    1
     3     7     8   ar
     4     8     9   ar
     5     9    10   ar
     6    10     1    1
     7     1     2   ar
     8     2     3   ar
     9     3     4   ar
    10     4    31    1
    11    31    32    1
    12    32    33   ar
    13    33    34   ar
    14    34    35   ar
    15    35    36   ar
    16    36    37   ar
    17    37    38    1
    18    38    39    1
    19    39    40    1
    20    40    41    1
    21     4     5   ar
    22     5    18    1
    23    18    19   am
    24    19    20    2
    25    19    21   am
    26    21    24    1
    27    24    25   ar
    28    25    26   ar
    29    26    27   ar
    30    27    28   ar
    31    28    29    1
    32    28    30   ar
    33     5     6   ar
    34    10    11   ar
    35    11    12   ar
    36    12    13    1
    37    13    14   ar
    38    13    15   ar
    39    12     7   ar
    40     6     1   ar
    41    37    32   ar
    42    30    24   ar
    43    41    36    1
    44    18    22    1
    45    21    23    1
@<TRIPOS>MOLECULE
*****
 41 45 0 0 0
SMALL
GASTEIGER

@<TRIPOS>ATOM
      1 C          63.5825   85.7162   13.0501 C.ar    1  UNL1        0.0014
      2 C          64.3368   86.0822   14.2939 C.ar    1  UNL1        0.0032
      3 C          64.4482   87.5197   14.7078 C.ar    1  UNL1        0.0388
      4 C          63.8053   88.5911   13.8779 C.ar    1  UNL1        0.1586
      5 C          63.0509   88.2250   12.6341 C.ar    1  UNL1        0.0865
      6 C          62.9395   86.7876   12.2202 C.ar    1  UNL1        0.0178
      7 C          63.2483   81.4038   11.8085 C.ar    1  UNL1        0.1397
      8 C          63.9156   82.3956   10.9024 C.ar    1  UNL1        0.0369
      9 C          64.0270   83.8330   11.3163 C.ar    1  UNL1        0.0031
     10 C          63.4711   84.2788   12.6363 C.ar    1  UNL1        0.0003
     11 C          62.8038   83.2870   13.5424 C.ar    1  UNL1        0.0042
     12 C          62.6924   81.8494   13.1285 C.ar    1  UNL1        0.0479
     13 C          62.0251   80.8576   14.0346 C.2     1  UNL1        0.0758
     14 O          62.8303   79.7653   14.6736 O.co2   1  UNL1       -0.5445
     15 O          60.5524   80.9582   14.3017 O.co2   1  UNL1       -0.5445
     16 C          62.8677   79.6174    9.9608 C.3     1  UNL1        0.2525
     17 O          63.1369   79.9664   11.3947 O.3     1  UNL1       -0.4714
     18 N          62.4080   89.2964   11.8042 N.am    1  UNL1       -0.2656
     19 C          61.6310   88.9282   10.5751 C.2     1  UNL1        0.3082
     20 O          61.4969   87.4885   10.1760 O.2     1  UNL1       -0.2521
     21 N          60.9880   89.9996    9.7452 N.am    1  UNL1       -0.2681
     22 H          62.4960   90.2413   12.0661 H       1  UNL1        0.1565
     23 H          61.0760   90.9445   10.0072 H       1  UNL1        0.1564
     24 C          60.2110   89.6313    8.5162 C.ar    1  UNL1        0.0513
     25 C          59.5443   88.2908    8.4240 C.ar    1  UNL1        0.0147
     26 C          58.7672   87.9225    7.1949 C.ar    1  UNL1        0.0010
     27 C          58.6569   88.8948    6.0581 C.ar    1  UNL1       -0.0042
     28 C          59.3236   90.2353    6.1502 C.ar    1  UNL1       -0.0206
     29 C          59.2133   91.2076    5.0134 C.3     1  UNL1        0.0311
     30 C          60.1006   90.6036    7.3792 C.ar    1  UNL1        0.0105
     31 O          63.9167   90.0286   14.2917 O.3     1  UNL1       -0.4526
     32 C          65.2028   90.7717   14.0828 C.ar    1  UNL1        0.1410
     33 C          66.2784   90.7175   15.1268 C.ar    1  UNL1        0.0371
     34 C          67.5646   91.4606   14.9179 C.ar    1  UNL1        0.0028
     35 C          67.7750   92.2580   13.6649 C.ar    1  UNL1       -0.0044
     36 C          66.6994   92.3122   12.6208 C.ar    1  UNL1       -0.0232
     37 C          65.4132   91.5691   12.8298 C.ar    1  UNL1        0.0084
     38 C          64.3376   91.6233   11.7858 C.3     1  UNL1        0.0291
     39 C          64.5481   92.4207   10.5328 C.3     1  UNL1        0.0051
     40 C          65.8342   93.1638   10.3239 C.3     1  UNL1        0.0050
     41 C          66.9098   93.1096   11.3679 C.3     1  UNL1        0.0261
@<TRIPOS>UNITY_ATOM_ATTR
14 1
charge -1
@<TRIPOS>BOND
     1    16    17    1
     2    17     7    1
     3     7     8   ar
     4     8     9   ar
     5     9    10   ar
     6    10     1    1
     7     1     2   ar
     8     2     3   ar
     9     3     4   ar
    10     4    31    1
    11    31    32    1
    12    32    33   ar
    13    33    34   ar
    14    34    35   ar
    15    35    36   ar
    16    36    37   ar
    17    37    38    1
    18    38    39    1
    19    39    40    1
    20    40    41    1
    21     4     5   ar
    22     5    18    1
    23    18    19   am
    24    19    20    2
    25    19    21   am
    26    21    24    1
    27    24    25   ar
    28    25    26   ar
    29    26    27   ar
    30    27    28   ar
    31    28    29    1
    32    28    30   ar
    33     5     6   ar
    34    10    11   ar
    35    11    12   ar
    36    12    13    1
    37    13    14   ar
    38    13    15   ar
    39    12     7   ar
    40     6     1   ar
    41    37    32   ar
    42    30    24   ar
    43    41    36    1
    44    18    22    1
    45    21    23    1
@<TRIPOS>MOLECULE
*****
 41 45 0 0 0
SMALL
GASTEIGER

@<TRIPOS>ATOM
      1 C          60.1013   88.8408    7.7718 C.ar    1  UNL1        0.0014
      2 C          59.2551   87.6328    8.0447 C.ar    1  UNL1        0.0032
      3 C          59.6240   86.6940    9.1550 C.ar    1  UNL1        0.0388
      4 C          60.8391   86.9633    9.9923 C.ar    1  UNL1        0.1586
      5 C          61.6853   88.1715    9.7193 C.ar    1  UNL1        0.0865
      6 C          61.3164   89.1102    8.6090 C.ar    1  UNL1        0.0178
      7 C          58.9946   91.6571    4.4410 C.ar    1  UNL1        0.1397
      8 C          60.4321   91.2958    4.6712 C.ar    1  UNL1        0.0369
      9 C          60.8010   90.3571    5.7814 C.ar    1  UNL1        0.0031
     10 C          59.7324   89.7796    6.6615 C.ar    1  UNL1        0.0003
     11 C          58.2948   90.1408    6.4314 C.ar    1  UNL1        0.0042
     12 C          57.9259   91.0796    5.3211 C.ar    1  UNL1        0.0479
     13 C          56.4884   91.4409    5.0909 C.2     1  UNL1        0.0758
     14 O          55.4008   90.5033    5.5244 O.co2   1  UNL1       -0.5445
     15 O          56.1385   92.7398    4.4272 O.co2   1  UNL1       -0.5445
     16 C          59.6250   92.9212    2.2605 C.3     1  UNL1        0.2525
     17 O          58.6256   92.5958    3.3308 O.3     1  UNL1       -0.4714
     18 N          62.9004   88.4408   10.5565 N.am    1  UNL1       -0.2656
     19 C          62.7472   88.8348   11.9957 C.2     1  UNL1        0.3082
     20 O          61.3790   88.9596   12.5976 O.2     1  UNL1       -0.2521
     21 N          63.9623   89.1042   12.8330 N.am    1  UNL1       -0.2681
     22 H          63.7984   88.3589   10.1615 H       1  UNL1        0.1565
     23 H          64.8603   89.0223   12.4379 H       1  UNL1        0.1564
     24 C          63.8091   89.4982   14.2721 C.ar    1  UNL1        0.0513
     25 C          64.0369   90.9212   14.6885 C.ar    1  UNL1        0.0147
     26 C          63.8837   91.3152   16.1277 C.ar    1  UNL1        0.0010
     27 C          63.5028   90.2863   17.1505 C.ar    1  UNL1       -0.0042
     28 C          63.2750   88.8633   16.7342 C.ar    1  UNL1       -0.0206
     29 C          62.8941   87.8344   17.7570 C.3     1  UNL1        0.0311
     30 C          63.4282   88.4693   15.2950 C.ar    1  UNL1        0.0105
     31 O          61.2080   86.0246   11.1025 O.3     1  UNL1       -0.4526
     32 C          62.2888   85.0054   10.8949 C.ar    1  UNL1        0.1410
     33 C          62.8626   84.7888    9.5260 C.ar    1  UNL1        0.0371
     34 C          63.9434   83.7696    9.3185 C.ar    1  UNL1        0.0028
     35 C          64.4505   82.9671   10.4798 C.ar    1  UNL1       -0.0044
     36 C          63.8768   83.1836   11.8487 C.ar    1  UNL1       -0.0232
     37 C          62.7959   84.2028   12.0563 C.ar    1  UNL1        0.0084
     38 C          62.2222   84.4194   13.4252 C.3     1  UNL1        0.0291
     39 C          62.7293   83.6168   14.5865 C.3     1  UNL1        0.0051
     40 C          63.8102   82.5977   14.3789 C.3     1  UNL1        0.0050
     41 C          64.3839   82.3811   13.0100 C.3     1  UNL1        0.0261
@<TRIPOS>UNITY_ATOM_ATTR
14 1
charge -1
@<TRIPOS>BOND
     1    16    17    1
     2    17     7    1
     3     7     8   ar
     4     8     9   ar
     5     9    10   ar
     6    10     1    1
     7     1     2   ar
     8     2     3   ar
     9     3     4   ar
    10     4    31    1
    11    31    32    1
    12    32    33   ar
    13    33    34   ar
    14    34    35   ar
    15    35    36   ar
    16    36    37   ar
    17    37    38    1
    18    38    39    1
    19    39    40    1
    20    40    41    1
    21     4     5   ar
    22     5    18    1
    23    18    19   am
    24    19    20    2
    25    19    21   am
    26    21    24    1
    27    24    25   ar
    28    25    26   ar
    29    26    27   ar
    30    27    28   ar
    31    28    29    1
    32    28    30   ar
    33     5     6   ar
    34    10    11   ar
    35    11    12   ar
    36    12    13    1
    37    13    14   ar
    38    13    15   ar
    39    12     7   ar
    40     6     1   ar
    41    37    32   ar
    42    30    24   ar
    43    41    36    1
    44    18    22    1
    45    21    23    1
@<TRIPOS>MOLECULE
*****
 41 45 0 0 0
SMALL
GASTEIGER

@<TRIPOS>ATOM
      1 C          59.7461   89.7060    7.1766 C.ar    1  UNL1        0.0014
      2 C          59.2977   88.2765    7.1031 C.ar    1  UNL1        0.0032
      3 C          59.3753   87.4026    8.3199 C.ar    1  UNL1        0.0388
      4 C          59.9012   87.9583    9.6101 C.ar    1  UNL1        0.1586
      5 C          60.3496   89.3879    9.6835 C.ar    1  UNL1        0.0865
      6 C          60.2720   90.2617    8.4668 C.ar    1  UNL1        0.0178
      7 C          59.5133   92.3273    3.5264 C.ar    1  UNL1        0.1397
      8 C          58.2662   91.9911    4.2890 C.ar    1  UNL1        0.0369
      9 C          58.3438   91.1174    5.5058 C.ar    1  UNL1        0.0031
     10 C          59.6685   90.5797    5.9599 C.ar    1  UNL1        0.0003
     11 C          60.9156   90.9159    5.1972 C.ar    1  UNL1        0.0042
     12 C          60.8380   91.7898    3.9804 C.ar    1  UNL1        0.0479
     13 C          62.0851   92.1260    3.2177 C.2     1  UNL1        0.0758
     14 O          62.0942   93.2885    2.2700 O.co2   1  UNL1       -0.5445
     15 O          63.3232   91.2995    3.4029 O.co2   1  UNL1       -0.5445
     16 C          59.1138   92.5997    0.9737 C.3     1  UNL1        0.2525
     17 O          59.4358   93.2011    2.3096 O.3     1  UNL1       -0.4714
     18 N          60.8755   89.9437   10.9737 N.am    1  UNL1       -0.2656
     19 C          62.2907   90.4334   11.0578 C.2     1  UNL1        0.3082
     20 O          63.1801   90.3675    9.8517 O.2     1  UNL1       -0.2521
     21 N          62.8166   90.9892   12.3480 N.am    1  UNL1       -0.2681
     22 H          60.2917   89.9870   11.7653 H       1  UNL1        0.1565
     23 H          62.2329   91.0325   13.1396 H       1  UNL1        0.1564
     24 C          64.2319   91.4789   12.4321 C.ar    1  UNL1        0.0513
     25 C          64.8498   92.1909   11.2653 C.ar    1  UNL1        0.0147
     26 C          66.2651   92.6807   11.3495 C.ar    1  UNL1        0.0010
     27 C          67.0625   92.4585   12.6003 C.ar    1  UNL1       -0.0042
     28 C          66.4447   91.7465   13.7671 C.ar    1  UNL1       -0.0206
     29 C          67.2421   91.5242   15.0180 C.3     1  UNL1        0.0311
     30 C          65.0294   91.2567   13.6830 C.ar    1  UNL1        0.0105
     31 O          59.9788   87.0846   10.8268 O.3     1  UNL1       -0.4526
     32 C          61.1755   86.2069   11.0448 C.ar    1  UNL1        0.1410
     33 C          61.6765   85.9538   12.4358 C.ar    1  UNL1        0.0371
     34 C          62.8732   85.0761   12.6538 C.ar    1  UNL1        0.0028
     35 C          63.5689   84.4515   11.4809 C.ar    1  UNL1       -0.0044
     36 C          63.0678   84.7045   10.0898 C.ar    1  UNL1       -0.0232
     37 C          61.8711   85.5822    9.8718 C.ar    1  UNL1        0.0084
     38 C          61.3700   85.8353    8.4808 C.3     1  UNL1        0.0291
     39 C          62.0657   85.2106    7.3079 C.3     1  UNL1        0.0051
     40 C          63.2624   84.3329    7.5259 C.3     1  UNL1        0.0050
     41 C          63.7634   84.0799    8.9168 C.3     1  UNL1        0.0261
@<TRIPOS>UNITY_ATOM_ATTR
14 1
charge -1
@<TRIPOS>BOND
     1    16    17    1
     2    17     7    1
     3     7     8   ar
     4     8     9   ar
     5     9    10   ar
     6    10     1    1
     7     1     2   ar
     8     2     3   ar
     9     3     4   ar
    10     4    31    1
    11    31    32    1
    12    32    33   ar
    13    33    34   ar
    14    34    35   ar
    15    35    36   ar
    16    36    37   ar
    17    37    38    1
    18    38    39    1
    19    39    40    1
    20    40    41    1
    21     4     5   ar
    22     5    18    1
    23    18    19   am
    24    19    20    2
    25    19    21   am
    26    21    24    1
    27    24    25   ar
    28    25    26   ar
    29    26    27   ar
    30    27    28   ar
    31    28    29    1
    32    28    30   ar
    33     5     6   ar
    34    10    11   ar
    35    11    12   ar
    36    12    13    1
    37    13    14   ar
    38    13    15   ar
    39    12     7   ar
    40     6     1   ar
    41    37    32   ar
    42    30    24   ar
    43    41    36    1
    44    18    22    1
    45    21    23    1
