@<TRIPOS>MOLECULE
*****
 28 29 0 0 0
SMALL
GASTEIGER

@<TRIPOS>ATOM
      1 C          64.3604   89.6729   14.3114 C.ar    1  UNL1        0.0002
      2 C          63.5526   90.0074   13.0926 C.ar    1  UNL1        0.0031
      3 C          63.9174   91.1963   12.2540 C.ar    1  UNL1        0.0368
      4 C          65.0902   92.0508   12.6343 C.ar    1  UNL1        0.1425
      5 C          65.8981   91.7163   13.8531 C.ar    1  UNL1        0.1053
      6 C          65.5331   90.5273   14.6916 C.ar    1  UNL1        0.0069
      7 C          64.3479   84.5318   15.0659 C.3     1  UNL1        0.0521
      8 C          63.9893   85.9133   15.5272 C.ar    1  UNL1        0.0594
      9 C          64.3541   87.1023   14.6887 C.ar    1  UNL1        0.0147
     10 C          63.9955   88.4838   15.1500 C.ar    1  UNL1        0.0027
     11 C          63.2720   88.6763   16.4497 C.ar    1  UNL1        0.0207
     12 C          62.9072   87.4874   17.2882 C.ar    1  UNL1        0.0984
     13 N          63.2658   86.1058   16.8269 N.ar    1  UNL1       -0.2481
     14 C          67.0708   92.5708   14.2333 C.3     1  UNL1        0.4214
     15 F          68.2435   93.4252   14.6136 F       1  UNL1       -0.1657
     16 F          67.9097   91.8793   13.1998 F       1  UNL1       -0.1657
     17 F          66.2319   93.2622   15.2668 F       1  UNL1       -0.1657
     18 O          65.4550   93.2398   11.7957 O.3     1  UNL1       -0.4741
     19 C          65.9565   93.0446   10.3956 C.3     1  UNL1        0.2192
     20 C          67.3350   93.5030   10.0219 C.3     1  UNL1        0.0798
     21 C          67.6981   92.0989    9.6390 C.3     1  UNL1        0.0193
     22 N          68.7136   93.9613    9.6482 N.3     1  UNL1       -0.3203
     23 H          69.2588   93.1650    9.3180 H       1  UNL1        0.1189
     24 H          69.1689   94.3701   10.4643 H       1  UNL1        0.1189
     25 C          66.9720   94.9070   10.4049 C.3     1  UNL1        0.0179
     26 C          66.2425   95.7851    9.4317 C.3     1  UNL1        0.0014
     27 C          65.0834   96.6168    9.8949 C.3     1  UNL1        0.0000
     28 C          66.6722   95.8313    7.9953 C.3     1  UNL1        0.0000
@<TRIPOS>BOND
     1     7     8    1
     2     8     9   ar
     3     9    10   ar
     4    10     1    1
     5     1     2   ar
     6     2     3   ar
     7     3     4   ar
     8     4    18    1
     9    18    19    1
    10    19    20    1
    11    20    21    1
    12    20    22    1
    13    20    25    1
    14    25    26    1
    15    26    27    1
    16    26    28    1
    17     4     5   ar
    18     5    14    1
    19    14    15    1
    20    14    16    1
    21    14    17    1
    22     5     6   ar
    23    10    11   ar
    24    11    12   ar
    25    12    13   ar
    26    13     8   ar
    27     6     1   ar
    28    22    23    1
    29    22    24    1
@<TRIPOS>MOLECULE
*****
 28 29 0 0 0
SMALL
GASTEIGER

@<TRIPOS>ATOM
      1 C          62.4367   88.9732   10.6422 C.ar    1  UNL1        0.0002
      2 C          62.8403   90.3202   10.1200 C.ar    1  UNL1        0.0031
      3 C          63.5391   91.2951   11.0207 C.ar    1  UNL1        0.0368
      4 C          63.8344   90.9230   12.4435 C.ar    1  UNL1        0.1425
      5 C          63.4307   89.5760   12.9657 C.ar    1  UNL1        0.1053
      6 C          62.7318   88.6011   12.0649 C.ar    1  UNL1        0.0069
      7 C          62.5863   84.8041    7.5444 C.3     1  UNL1        0.0521
      8 C          61.8126   85.9137    8.1926 C.ar    1  UNL1        0.0594
      9 C          62.5114   86.8886    9.0932 C.ar    1  UNL1        0.0147
     10 C          61.7378   87.9983    9.7414 C.ar    1  UNL1        0.0027
     11 C          60.2654   88.1331    9.4889 C.ar    1  UNL1        0.0207
     12 C          59.5666   87.1582    8.5882 C.ar    1  UNL1        0.0984
     13 N          60.3402   86.0485    7.9401 N.ar    1  UNL1       -0.2481
     14 C          63.7259   89.2038   14.3884 C.3     1  UNL1        0.4214
     15 F          64.0211   88.8317   15.8112 F       1  UNL1       -0.1657
     16 F          62.8745   90.3438   14.8632 F       1  UNL1       -0.1657
     17 F          64.5773   88.0638   13.9136 F       1  UNL1       -0.1657
     18 O          64.5332   91.8978   13.3442 O.3     1  UNL1       -0.4741
     19 C          65.6783   92.7137   12.8216 C.3     1  UNL1        0.2192
     20 C          67.0736   92.1651   12.8698 C.3     1  UNL1        0.0798
     21 C          67.3223   92.6760   11.4816 C.3     1  UNL1        0.0193
     22 N          68.4689   91.6165   12.9179 N.3     1  UNL1       -0.3203
     23 H          68.9446   91.8197   12.0388 H       1  UNL1        0.1189
     24 H          68.4326   90.6070   13.0594 H       1  UNL1        0.1189
     25 C          66.8248   91.6542   14.2579 C.3     1  UNL1        0.0179
     26 C          66.9000   92.5914   15.4268 C.3     1  UNL1        0.0014
     27 C          65.8072   92.5981   16.4542 C.3     1  UNL1        0.0000
     28 C          68.0680   93.5219   15.5680 C.3     1  UNL1        0.0000
@<TRIPOS>BOND
     1     7     8    1
     2     8     9   ar
     3     9    10   ar
     4    10     1    1
     5     1     2   ar
     6     2     3   ar
     7     3     4   ar
     8     4    18    1
     9    18    19    1
    10    19    20    1
    11    20    21    1
    12    20    22    1
    13    20    25    1
    14    25    26    1
    15    26    27    1
    16    26    28    1
    17     4     5   ar
    18     5    14    1
    19    14    15    1
    20    14    16    1
    21    14    17    1
    22     5     6   ar
    23    10    11   ar
    24    11    12   ar
    25    12    13   ar
    26    13     8   ar
    27     6     1   ar
    28    22    23    1
    29    22    24    1
@<TRIPOS>MOLECULE
*****
 28 29 0 0 0
SMALL
GASTEIGER

@<TRIPOS>ATOM
      1 C          62.3722   89.0346   10.4860 C.ar    1  UNL1        0.0002
      2 C          62.7536   90.3597    9.8956 C.ar    1  UNL1        0.0031
      3 C          63.4758   91.3737   10.7324 C.ar    1  UNL1        0.0368
      4 C          63.8166   91.0626   12.1597 C.ar    1  UNL1        0.1425
      5 C          63.4352   89.7374   12.7501 C.ar    1  UNL1        0.1053
      6 C          62.7130   88.7234   11.9132 C.ar    1  UNL1        0.0069
      7 C          62.4565   84.7881    7.4927 C.3     1  UNL1        0.0521
      8 C          61.6922   85.8974    8.1524 C.ar    1  UNL1        0.0594
      9 C          62.4143   86.9113    8.9893 C.ar    1  UNL1        0.0147
     10 C          61.6500   88.0206    9.6491 C.ar    1  UNL1        0.0027
     11 C          60.1636   88.1160    9.4720 C.ar    1  UNL1        0.0207
     12 C          59.4415   87.1020    8.6351 C.ar    1  UNL1        0.0984
     13 N          60.2058   85.9927    7.9753 N.ar    1  UNL1       -0.2481
     14 C          63.7760   89.4263   14.1773 C.3     1  UNL1        0.4214
     15 F          64.1168   89.1151   15.6045 F       1  UNL1       -0.1657
     16 F          64.4735   88.1732   13.7376 F       1  UNL1       -0.1657
     17 F          63.0786   90.6793   14.6170 F       1  UNL1       -0.1657
     18 O          64.5388   92.0765   12.9965 O.3     1  UNL1       -0.4741
     19 C          65.5954   92.9435   12.3785 C.3     1  UNL1        0.2192
     20 C          67.0005   92.4353   12.2475 C.3     1  UNL1        0.0798
     21 C          67.1876   92.5706   13.7296 C.3     1  UNL1        0.0193
     22 N          68.4058   91.9271   12.1165 N.3     1  UNL1       -0.3203
     23 H          68.8442   91.8987   13.0370 H       1  UNL1        0.1189
     24 H          68.9365   92.5485   11.5061 H       1  UNL1        0.1189
     25 C          66.8134   92.3000   10.7654 C.3     1  UNL1        0.0179
     26 C          67.6369   93.1310    9.8265 C.3     1  UNL1        0.0014
     27 C          67.4532   94.6191    9.7841 C.3     1  UNL1        0.0000
     28 C          68.6440   92.4738    8.9300 C.3     1  UNL1        0.0000
@<TRIPOS>BOND
     1     7     8    1
     2     8     9   ar
     3     9    10   ar
     4    10     1    1
     5     1     2   ar
     6     2     3   ar
     7     3     4   ar
     8     4    18    1
     9    18    19    1
    10    19    20    1
    11    20    21    1
    12    20    22    1
    13    20    25    1
    14    25    26    1
    15    26    27    1
    16    26    28    1
    17     4     5   ar
    18     5    14    1
    19    14    15    1
    20    14    16    1
    21    14    17    1
    22     5     6   ar
    23    10    11   ar
    24    11    12   ar
    25    12    13   ar
    26    13     8   ar
    27     6     1   ar
    28    22    23    1
    29    22    24    1
@<TRIPOS>MOLECULE
*****
 28 29 0 0 0
SMALL
GASTEIGER

@<TRIPOS>ATOM
      1 C          64.8327   90.3030   14.4900 C.ar    1  UNL1        0.0002
      2 C          64.2111   90.8513   13.2398 C.ar    1  UNL1        0.0031
      3 C          64.7870   92.0744   12.5900 C.ar    1  UNL1        0.0368
      4 C          65.9845   92.7494   13.1905 C.ar    1  UNL1        0.1425
      5 C          66.6060   92.2012   14.4407 C.ar    1  UNL1        0.1053
      6 C          66.0301   90.9779   15.0905 C.ar    1  UNL1        0.0069
      7 C          64.2753   85.1398   14.6647 C.3     1  UNL1        0.0521
      8 C          63.9781   86.4982   15.2271 C.ar    1  UNL1        0.0594
      9 C          64.5540   87.7214   14.5774 C.ar    1  UNL1        0.0147
     10 C          64.2567   89.0798   15.1398 C.ar    1  UNL1        0.0027
     11 C          63.3836   89.2151   16.3519 C.ar    1  UNL1        0.0207
     12 C          62.8077   87.9919   17.0016 C.ar    1  UNL1        0.0984
     13 N          63.1050   86.6335   16.4392 N.ar    1  UNL1       -0.2481
     14 C          67.8035   92.8761   15.0412 C.3     1  UNL1        0.4214
     15 F          69.0009   93.5510   15.6417 F       1  UNL1       -0.1657
     16 F          68.6888   92.1974   14.0385 F       1  UNL1       -0.1657
     17 F          66.9181   93.5548   16.0439 F       1  UNL1       -0.1657
     18 O          66.5604   93.9725   12.5407 O.3     1  UNL1       -0.4741
     19 C          65.9878   94.4755   11.2487 C.3     1  UNL1        0.2192
     20 C          66.8959   94.7827   10.0951 C.3     1  UNL1        0.0798
     21 C          66.9717   96.2144   10.5360 C.3     1  UNL1        0.0193
     22 N          67.8041   95.0900    8.9414 N.3     1  UNL1       -0.3203
     23 H          68.0585   96.0776    8.9626 H       1  UNL1        0.1189
     24 H          67.3242   94.8813    8.0659 H       1  UNL1        0.1189
     25 C          66.8202   93.3510    9.6542 C.3     1  UNL1        0.0179
     26 C          68.0533   92.4969    9.6642 C.3     1  UNL1        0.0014
     27 C          68.8456   92.3089    8.4044 C.3     1  UNL1        0.0000
     28 C          68.4941   91.8310   10.9339 C.3     1  UNL1        0.0000
@<TRIPOS>BOND
     1     7     8    1
     2     8     9   ar
     3     9    10   ar
     4    10     1    1
     5     1     2   ar
     6     2     3   ar
     7     3     4   ar
     8     4    18    1
     9    18    19    1
    10    19    20    1
    11    20    21    1
    12    20    22    1
    13    20    25    1
    14    25    26    1
    15    26    27    1
    16    26    28    1
    17     4     5   ar
    18     5    14    1
    19    14    15    1
    20    14    16    1
    21    14    17    1
    22     5     6   ar
    23    10    11   ar
    24    11    12   ar
    25    12    13   ar
    26    13     8   ar
    27     6     1   ar
    28    22    23    1
    29    22    24    1
@<TRIPOS>MOLECULE
*****
 28 29 0 0 0
SMALL
GASTEIGER

@<TRIPOS>ATOM
      1 C          64.0056   89.3138   13.8560 C.ar    1  UNL1        0.0002
      2 C          64.2788   87.8935   14.2536 C.ar    1  UNL1        0.0031
      3 C          63.7678   86.7660   13.4065 C.ar    1  UNL1        0.0368
      4 C          62.9836   87.0588   12.1618 C.ar    1  UNL1        0.1425
      5 C          62.7104   88.4791   11.7642 C.ar    1  UNL1        0.1053
      6 C          63.2215   89.6066   12.6113 C.ar    1  UNL1        0.0069
      7 C          67.5553   92.9928   14.7862 C.3     1  UNL1        0.0521
      8 C          66.2915   92.2808   15.1683 C.ar    1  UNL1        0.0594
      9 C          65.7804   91.1533   14.3212 C.ar    1  UNL1        0.0147
     10 C          64.5167   90.4413   14.7032 C.ar    1  UNL1        0.0027
     11 C          63.7640   90.8568   15.9323 C.ar    1  UNL1        0.0207
     12 C          64.2750   91.9842   16.7794 C.ar    1  UNL1        0.0984
     13 N          65.5388   92.6962   16.3974 N.ar    1  UNL1       -0.2481
     14 C          61.9263   88.7719   10.5195 C.3     1  UNL1        0.4214
     15 F          61.1421   89.0648    9.2748 F       1  UNL1       -0.1657
     16 F          63.1538   89.3531    9.8829 F       1  UNL1       -0.1657
     17 F          60.6987   88.1907   11.1561 F       1  UNL1       -0.1657
     18 O          62.4726   85.9313   11.3147 O.3     1  UNL1       -0.4741
     19 C          62.6037   84.5154   11.7921 C.3     1  UNL1        0.2192
     20 C          63.7485   83.6681   11.3213 C.3     1  UNL1        0.0798
     21 C          63.4900   84.1035    9.9094 C.3     1  UNL1        0.0193
     22 N          64.8932   82.8208   10.8504 N.3     1  UNL1       -0.3203
     23 H          64.9870   82.9080    9.8384 H       1  UNL1        0.1189
     24 H          64.7169   81.8459   11.0928 H       1  UNL1        0.1189
     25 C          64.0069   83.2327   12.7332 C.3     1  UNL1        0.0179
     26 C          63.0069   82.3727   13.4478 C.3     1  UNL1        0.0014
     27 C          62.4587   82.8052   14.7753 C.3     1  UNL1        0.0000
     28 C          62.5553   81.0803   12.8349 C.3     1  UNL1        0.0000
@<TRIPOS>BOND
     1     7     8    1
     2     8     9   ar
     3     9    10   ar
     4    10     1    1
     5     1     2   ar
     6     2     3   ar
     7     3     4   ar
     8     4    18    1
     9    18    19    1
    10    19    20    1
    11    20    21    1
    12    20    22    1
    13    20    25    1
    14    25    26    1
    15    26    27    1
    16    26    28    1
    17     4     5   ar
    18     5    14    1
    19    14    15    1
    20    14    16    1
    21    14    17    1
    22     5     6   ar
    23    10    11   ar
    24    11    12   ar
    25    12    13   ar
    26    13     8   ar
    27     6     1   ar
    28    22    23    1
    29    22    24    1
@<TRIPOS>MOLECULE
*****
 28 29 0 0 0
SMALL
GASTEIGER

@<TRIPOS>ATOM
      1 C          63.8119   87.2626   13.6574 C.ar    1  UNL1        0.0002
      2 C          64.5747   88.0566   14.6761 C.ar    1  UNL1        0.0031
      3 C          64.6789   89.5468   14.5409 C.ar    1  UNL1        0.0368
      4 C          64.0204   90.2431   13.3870 C.ar    1  UNL1        0.1425
      5 C          63.2576   89.4492   12.3683 C.ar    1  UNL1        0.1053
      6 C          63.1534   87.9589   12.5035 C.ar    1  UNL1        0.0069
      7 C          62.7428   82.6198   11.5834 C.3     1  UNL1        0.0521
      8 C          63.1731   83.4509   12.7555 C.ar    1  UNL1        0.0594
      9 C          63.2774   84.9412   12.6204 C.ar    1  UNL1        0.0147
     10 C          63.7077   85.7723   13.7926 C.ar    1  UNL1        0.0027
     11 C          64.0339   85.1132   15.0999 C.ar    1  UNL1        0.0207
     12 C          63.9297   83.6230   15.2351 C.ar    1  UNL1        0.0984
     13 N          63.4993   82.7918   14.0629 N.ar    1  UNL1       -0.2481
     14 C          62.5991   90.1454   11.2144 C.3     1  UNL1        0.4214
     15 F          61.9405   90.8417   10.0605 F       1  UNL1       -0.1657
     16 F          63.9335   90.3026   10.5477 F       1  UNL1       -0.1657
     17 F          61.2647   89.9882   11.8811 F       1  UNL1       -0.1657
     18 O          64.1246   91.7334   13.2518 O.3     1  UNL1       -0.4741
     19 C          65.3489   92.4472   13.7432 C.3     1  UNL1        0.2192
     20 C          66.6484   92.3002   13.0086 C.3     1  UNL1        0.0798
     21 C          67.3348   91.9442   14.2939 C.3     1  UNL1        0.0193
     22 N          67.9479   92.1533   12.2739 N.3     1  UNL1       -0.3203
     23 H          68.6825   91.8917   12.9315 H       1  UNL1        0.1189
     24 H          68.1892   93.0390   11.8293 H       1  UNL1        0.1189
     25 C          65.9620   92.6563   11.7233 C.3     1  UNL1        0.0179
     26 C          66.3799   93.8807   10.9640 C.3     1  UNL1        0.0014
     27 C          66.2202   95.2377   11.5828 C.3     1  UNL1        0.0000
     28 C          66.9573   93.7479    9.5860 C.3     1  UNL1        0.0000
@<TRIPOS>BOND
     1     7     8    1
     2     8     9   ar
     3     9    10   ar
     4    10     1    1
     5     1     2   ar
     6     2     3   ar
     7     3     4   ar
     8     4    18    1
     9    18    19    1
    10    19    20    1
    11    20    21    1
    12    20    22    1
    13    20    25    1
    14    25    26    1
    15    26    27    1
    16    26    28    1
    17     4     5   ar
    18     5    14    1
    19    14    15    1
    20    14    16    1
    21    14    17    1
    22     5     6   ar
    23    10    11   ar
    24    11    12   ar
    25    12    13   ar
    26    13     8   ar
    27     6     1   ar
    28    22    23    1
    29    22    24    1
@<TRIPOS>MOLECULE
*****
 28 29 0 0 0
SMALL
GASTEIGER

@<TRIPOS>ATOM
      1 C          65.5397   92.0620   11.9504 C.ar    1  UNL1        0.0002
      2 C          66.0817   91.8358   13.3307 C.ar    1  UNL1        0.0031
      3 C          65.4136   90.8542   14.2472 C.ar    1  UNL1        0.0368
      4 C          64.2035   90.0987   13.7834 C.ar    1  UNL1        0.1425
      5 C          63.6616   90.3248   12.4032 C.ar    1  UNL1        0.1053
      6 C          64.3297   91.3065   11.4866 C.ar    1  UNL1        0.0069
      7 C          65.8921   96.8560    9.9772 C.3     1  UNL1        0.0521
      8 C          66.3840   95.4407   10.0473 C.ar    1  UNL1        0.0594
      9 C          65.7159   94.4590   10.9638 C.ar    1  UNL1        0.0147
     10 C          66.2079   93.0437   11.0339 C.ar    1  UNL1        0.0027
     11 C          67.3679   92.6101   10.1876 C.ar    1  UNL1        0.0207
     12 C          68.0360   93.5918    9.2712 C.ar    1  UNL1        0.0984
     13 N          67.5440   95.0071    9.2010 N.ar    1  UNL1       -0.2481
     14 C          62.4516   89.5694   11.9394 C.3     1  UNL1        0.4214
     15 F          61.2416   88.8139   11.4756 F       1  UNL1       -0.1657
     16 F          63.2533   88.3019   11.9125 F       1  UNL1       -0.1657
     17 F          61.6500   90.8369   11.9662 F       1  UNL1       -0.1657
     18 O          63.5355   89.1170   14.6999 O.3     1  UNL1       -0.4741
     19 C          64.2136   87.8215   15.0341 C.3     1  UNL1        0.2192
     20 C          63.6421   86.9275   16.0943 C.3     1  UNL1        0.0798
     21 C          63.0308   88.1192   16.7697 C.3     1  UNL1        0.0193
     22 N          63.0706   86.0335   17.1547 N.3     1  UNL1       -0.3203
     23 H          62.5492   86.5949   17.8280 H       1  UNL1        0.1189
     24 H          63.8282   85.5459   17.6329 H       1  UNL1        0.1189
     25 C          64.2534   85.7358   15.4190 C.3     1  UNL1        0.0179
     26 C          63.4098   84.8524   14.5482 C.3     1  UNL1        0.0014
     27 C          62.7964   83.6063   15.1146 C.3     1  UNL1        0.0000
     28 C          63.1797   85.2153   13.1111 C.3     1  UNL1        0.0000
@<TRIPOS>BOND
     1     7     8    1
     2     8     9   ar
     3     9    10   ar
     4    10     1    1
     5     1     2   ar
     6     2     3   ar
     7     3     4   ar
     8     4    18    1
     9    18    19    1
    10    19    20    1
    11    20    21    1
    12    20    22    1
    13    20    25    1
    14    25    26    1
    15    26    27    1
    16    26    28    1
    17     4     5   ar
    18     5    14    1
    19    14    15    1
    20    14    16    1
    21    14    17    1
    22     5     6   ar
    23    10    11   ar
    24    11    12   ar
    25    12    13   ar
    26    13     8   ar
    27     6     1   ar
    28    22    23    1
    29    22    24    1
@<TRIPOS>MOLECULE
*****
 28 29 0 0 0
SMALL
GASTEIGER

@<TRIPOS>ATOM
      1 C          63.9177   88.0323   13.6508 C.ar    1  UNL1        0.0002
      2 C          63.3406   88.5708   12.3753 C.ar    1  UNL1        0.0031
      3 C          63.5252   90.0164   12.0202 C.ar    1  UNL1        0.0368
      4 C          64.2868   90.9235   12.9406 C.ar    1  UNL1        0.1425
      5 C          64.8639   90.3850   14.2162 C.ar    1  UNL1        0.1053
      6 C          64.6793   88.9393   14.5712 C.ar    1  UNL1        0.0069
      7 C          62.6681   83.1825   12.2659 C.3     1  UNL1        0.0521
      8 C          63.1083   84.1617   13.3134 C.ar    1  UNL1        0.0594
      9 C          63.2929   85.6073   12.9584 C.ar    1  UNL1        0.0147
     10 C          63.7331   86.5866   14.0059 C.ar    1  UNL1        0.0027
     11 C          63.9886   86.1203   15.4085 C.ar    1  UNL1        0.0207
     12 C          63.8040   84.6746   15.7635 C.ar    1  UNL1        0.0984
     13 N          63.3639   83.6954   14.7160 N.ar    1  UNL1       -0.2481
     14 C          65.6255   91.2920   15.1366 C.3     1  UNL1        0.4214
     15 F          66.3872   92.1990   16.0570 F       1  UNL1       -0.1657
     16 F          66.8684   91.0702   14.3267 F       1  UNL1       -0.1657
     17 F          64.3826   91.5138   15.9464 F       1  UNL1       -0.1657
     18 O          64.4714   92.3691   12.5855 O.3     1  UNL1       -0.4741
     19 C          65.4333   92.7585   11.5024 C.3     1  UNL1        0.2192
     20 C          66.0854   94.1091   11.5283 C.3     1  UNL1        0.0798
     21 C          66.2130   94.0189   13.0201 C.3     1  UNL1        0.0193
     22 N          66.7374   95.4597   11.5543 N.3     1  UNL1       -0.3203
     23 H          66.9670   95.7080   12.5166 H       1  UNL1        0.1189
     24 H          66.0977   96.1536   11.1675 H       1  UNL1        0.1189
     25 C          65.9577   94.1993   10.0365 C.3     1  UNL1        0.0179
     26 C          67.1878   94.2862    9.1824 C.3     1  UNL1        0.0014
     27 C          67.3930   95.4673    8.2809 C.3     1  UNL1        0.0000
     28 C          68.2126   93.1919    9.2298 C.3     1  UNL1        0.0000
@<TRIPOS>BOND
     1     7     8    1
     2     8     9   ar
     3     9    10   ar
     4    10     1    1
     5     1     2   ar
     6     2     3   ar
     7     3     4   ar
     8     4    18    1
     9    18    19    1
    10    19    20    1
    11    20    21    1
    12    20    22    1
    13    20    25    1
    14    25    26    1
    15    26    27    1
    16    26    28    1
    17     4     5   ar
    18     5    14    1
    19    14    15    1
    20    14    16    1
    21    14    17    1
    22     5     6   ar
    23    10    11   ar
    24    11    12   ar
    25    12    13   ar
    26    13     8   ar
    27     6     1   ar
    28    22    23    1
    29    22    24    1
@<TRIPOS>MOLECULE
*****
 28 29 0 0 0
SMALL
GASTEIGER

@<TRIPOS>ATOM
      1 C          63.3497   85.7138   12.7747 C.ar    1  UNL1        0.0002
      2 C          64.1164   86.1519   13.9872 C.ar    1  UNL1        0.0031
      3 C          64.2675   87.6128   14.2916 C.ar    1  UNL1        0.0368
      4 C          63.6519   88.6358   13.3835 C.ar    1  UNL1        0.1425
      5 C          62.8851   88.1977   12.1710 C.ar    1  UNL1        0.1053
      6 C          62.7340   86.7367   11.8666 C.ar    1  UNL1        0.0069
      7 C          61.5563   81.0105   14.0641 C.3     1  UNL1        0.0521
      8 C          62.3019   81.9011   13.1150 C.ar    1  UNL1        0.0594
      9 C          62.4530   83.3621   13.4194 C.ar    1  UNL1        0.0147
     10 C          63.1986   84.2527   12.4703 C.ar    1  UNL1        0.0027
     11 C          63.7931   83.6824   11.2168 C.ar    1  UNL1        0.0207
     12 C          63.6420   82.2214   10.9124 C.ar    1  UNL1        0.0984
     13 N          62.8964   81.3308   11.8615 N.ar    1  UNL1       -0.2481
     14 C          62.2694   89.2206   11.2630 C.3     1  UNL1        0.4214
     15 F          61.6538   90.2435   10.3549 F       1  UNL1       -0.1657
     16 F          60.9174   88.6148   11.4973 F       1  UNL1       -0.1657
     17 F          63.6215   89.8263   11.0286 F       1  UNL1       -0.1657
     18 O          63.8030   90.0967   13.6880 O.3     1  UNL1       -0.4741
     19 C          65.0476   90.5984   14.3581 C.3     1  UNL1        0.2192
     20 C          64.9605   91.6948   15.3780 C.3     1  UNL1        0.0798
     21 C          63.9361   90.9059   16.1385 C.3     1  UNL1        0.0193
     22 N          64.8732   92.7913   16.3980 N.3     1  UNL1       -0.3203
     23 H          64.1968   92.5340   17.1167 H       1  UNL1        0.1189
     24 H          64.5754   93.6548   15.9442 H       1  UNL1        0.1189
     25 C          65.9848   92.4837   14.6175 C.3     1  UNL1        0.0179
     26 C          67.4379   92.1272   14.7256 C.3     1  UNL1        0.0014
     27 C          68.2126   91.7561   13.4960 C.3     1  UNL1        0.0000
     28 C          68.1162   92.1419   16.0634 C.3     1  UNL1        0.0000
@<TRIPOS>BOND
     1     7     8    1
     2     8     9   ar
     3     9    10   ar
     4    10     1    1
     5     1     2   ar
     6     2     3   ar
     7     3     4   ar
     8     4    18    1
     9    18    19    1
    10    19    20    1
    11    20    21    1
    12    20    22    1
    13    20    25    1
    14    25    26    1
    15    26    27    1
    16    26    28    1
    17     4     5   ar
    18     5    14    1
    19    14    15    1
    20    14    16    1
    21    14    17    1
    22     5     6   ar
    23    10    11   ar
    24    11    12   ar
    25    12    13   ar
    26    13     8   ar
    27     6     1   ar
    28    22    23    1
    29    22    24    1
