@<TRIPOS>MOLECULE
*****
 33 37 0 0 0
SMALL
GASTEIGER

@<TRIPOS>ATOM
      1 C          63.0187   85.0546   15.5502 C.2     1  UNL1        0.3243
      2 N          63.5940   85.7221   14.3363 N.2     1  UNL1       -0.1927
      3 C          63.7447   87.1836   14.6387 C.2     1  UNL1        0.0999
      4 C          64.2586   88.3302   13.8195 C.2     1  UNL1        0.0210
      5 C          64.2904   89.7125   14.4011 C.2     1  UNL1        0.0085
      6 C          63.8082   89.9482   15.8017 C.2     1  UNL1        0.0415
      7 CL         63.8400   91.3306   16.3833 Cl      1  UNL1       -0.0865
      8 C          63.2943   88.8016   16.6209 C.3     1  UNL1        0.0853
      9 C          63.2625   87.4193   16.0394 C.2     1  UNL1        0.0866
     10 N          62.8138   86.1035   16.6028 N.2     1  UNL1       -0.1964
     11 C          64.8044   90.8592   13.5818 C.ar    1  UNL1        0.0006
     12 C          64.1350   91.2158   12.2877 C.ar    1  UNL1        0.0000
     13 C          64.6490   92.3624   11.4685 C.ar    1  UNL1        0.0000
     14 C          65.8323   93.1525   11.9435 C.ar    1  UNL1        0.0000
     15 C          66.5017   92.7959   13.2376 C.ar    1  UNL1        0.0000
     16 C          65.9877   91.6493   14.0568 C.ar    1  UNL1        0.0000
     17 C          66.3462   94.2991   11.1243 C.ar    1  UNL1        0.0000
     18 C          66.1165   95.7093   11.5807 C.ar    1  UNL1        0.0000
     19 C          66.6304   96.8559   10.7613 C.ar    1  UNL1        0.0000
     20 C          67.3741   96.5922    9.4856 C.ar    1  UNL1        0.0000
     21 C          67.6039   95.1819    9.0292 C.ar    1  UNL1        0.0000
     22 C          67.0900   94.0354    9.8485 C.ar    1  UNL1        0.0000
     23 O          62.7036   83.5945   15.6874 O.3     1  UNL1       -0.4223
     24 C          62.7215   80.0532   10.8440 C.3     1  UNL1        0.0311
     25 C          62.7170   80.9385   12.0548 C.ar    1  UNL1       -0.0205
     26 C          62.2125   80.4132   13.3661 C.ar    1  UNL1       -0.0011
     27 C          62.2080   81.2986   14.5770 C.ar    1  UNL1        0.0373
     28 C          62.7081   82.7092   14.4766 C.ar    1  UNL1        0.1487
     29 C          63.2127   83.2345   13.1652 C.ar    1  UNL1        0.0384
     30 C          63.2171   82.3491   11.9544 C.ar    1  UNL1        0.0131
     31 C          63.7217   82.8744   10.6431 C.2     1  UNL1        0.0727
     32 O          63.0150   84.0132    9.9695 O.co2   1  UNL1       -0.5446
     33 O          64.9329   82.2610   10.0055 O.co2   1  UNL1       -0.5446
@<TRIPOS>UNITY_ATOM_ATTR
32 1
charge -1
@<TRIPOS>BOND
     1    24    25    1
     2    25    26   ar
     3    26    27   ar
     4    27    28   ar
     5    28    23    1
     6    23     1    1
     7     1     2    2
     8     2     3    1
     9     3     4    2
    10     4     5    1
    11     5    11    1
    12    11    12   ar
    13    12    13   ar
    14    13    14   ar
    15    14    17    1
    16    17    18   ar
    17    18    19   ar
    18    19    20   ar
    19    20    21   ar
    20    21    22   ar
    21    14    15   ar
    22    15    16   ar
    23     5     6    2
    24     6     7    1
    25     6     8    1
    26     8     9    1
    27     9    10    2
    28    28    29   ar
    29    29    30   ar
    30    30    31    1
    31    31    32   ar
    32    31    33   ar
    33    30    25   ar
    34    10     1    1
    35     9     3    1
    36    16    11   ar
    37    22    17   ar
@<TRIPOS>MOLECULE
*****
 33 37 0 0 0
SMALL
GASTEIGER

@<TRIPOS>ATOM
      1 C          65.6963   92.9988   14.2524 C.2     1  UNL1        0.3243
      2 N          65.7237   91.7779   13.3814 N.2     1  UNL1       -0.1927
      3 C          65.0374   90.6668   14.1193 C.2     1  UNL1        0.0999
      4 C          64.7653   89.2375   13.7543 C.2     1  UNL1        0.0210
      5 C          64.0417   88.3425   14.7163 C.2     1  UNL1        0.0085
      6 C          63.5903   88.8767   16.0432 C.2     1  UNL1        0.0415
      7 CL         62.8667   87.9817   17.0052 Cl      1  UNL1       -0.0865
      8 C          63.8624   90.3059   16.4082 C.3     1  UNL1        0.0853
      9 C          64.5860   91.2010   15.4462 C.2     1  UNL1        0.0866
     10 N          64.9932   92.6423   15.5285 N.2     1  UNL1       -0.1964
     11 C          63.7695   86.9132   14.3513 C.ar    1  UNL1        0.0006
     12 C          64.0955   85.8163   15.3211 C.ar    1  UNL1        0.0000
     13 C          63.8234   84.3871   14.9561 C.ar    1  UNL1        0.0000
     14 C          63.2252   84.0548   13.6213 C.ar    1  UNL1        0.0000
     15 C          62.8992   85.1517   12.6514 C.ar    1  UNL1        0.0000
     16 C          63.1714   86.5809   13.0165 C.ar    1  UNL1        0.0000
     17 C          62.9531   82.6256   13.2563 C.ar    1  UNL1        0.0000
     18 C          63.4130   82.0886   11.9334 C.ar    1  UNL1        0.0000
     19 C          63.1408   80.6594   11.5686 C.ar    1  UNL1        0.0000
     20 C          62.4088   79.7669   12.5266 C.ar    1  UNL1        0.0000
     21 C          61.9490   80.3039   13.8496 C.ar    1  UNL1        0.0000
     22 C          62.2211   81.7331   14.2144 C.ar    1  UNL1        0.0000
     23 O          66.2712   94.3407   13.9077 O.3     1  UNL1       -0.4223
     24 C          67.0818   95.8716    8.1632 C.3     1  UNL1        0.0311
     25 C          66.8792   95.4889    9.5993 C.ar    1  UNL1       -0.0205
     26 C          66.2706   96.4691   10.5580 C.ar    1  UNL1       -0.0011
     27 C          66.0680   96.0863   11.9941 C.ar    1  UNL1        0.0373
     28 C          66.4739   94.7234   12.4716 C.ar    1  UNL1        0.1487
     29 C          67.0824   93.7433   11.5128 C.ar    1  UNL1        0.0384
     30 C          67.2850   94.1261   10.0768 C.ar    1  UNL1        0.0131
     31 C          67.8936   93.1460    9.1181 C.2     1  UNL1        0.0727
     32 O          68.1101   91.7223    9.5377 O.co2   1  UNL1       -0.5446
     33 O          68.2855   93.5896    7.7398 O.co2   1  UNL1       -0.5446
@<TRIPOS>UNITY_ATOM_ATTR
32 1
charge -1
@<TRIPOS>BOND
     1    24    25    1
     2    25    26   ar
     3    26    27   ar
     4    27    28   ar
     5    28    23    1
     6    23     1    1
     7     1     2    2
     8     2     3    1
     9     3     4    2
    10     4     5    1
    11     5    11    1
    12    11    12   ar
    13    12    13   ar
    14    13    14   ar
    15    14    17    1
    16    17    18   ar
    17    18    19   ar
    18    19    20   ar
    19    20    21   ar
    20    21    22   ar
    21    14    15   ar
    22    15    16   ar
    23     5     6    2
    24     6     7    1
    25     6     8    1
    26     8     9    1
    27     9    10    2
    28    28    29   ar
    29    29    30   ar
    30    30    31    1
    31    31    32   ar
    32    31    33   ar
    33    30    25   ar
    34    10     1    1
    35     9     3    1
    36    16    11   ar
    37    22    17   ar
