@<TRIPOS>MOLECULE
*****
 43 46 0 0 0
SMALL
GASTEIGER

@<TRIPOS>ATOM
      1 N          63.6354   87.0438   13.0778 N.ar    1  UNL1       -0.2754
      2 C          62.7740   86.6581   11.9119 C.ar    1  UNL1        0.0848
      3 C          62.1526   87.7205   11.0545 C.ar    1  UNL1        0.0744
      4 C          62.3927   89.1687   11.3631 C.ar    1  UNL1        0.2657
      5 O          61.7714   90.2312   10.5057 O.2     1  UNL1       -0.2668
      6 N          63.2541   89.5544   12.5289 N.ar    1  UNL1       -0.2470
      7 C          63.8754   88.4919   13.3863 C.ar    1  UNL1        0.3341
      8 O          64.7368   88.8777   14.5522 O.2     1  UNL1       -0.2462
      9 C          61.2913   87.3349    9.8887 C.ar    1  UNL1        0.0166
     10 C          59.9477   87.9759    9.7044 C.ar    1  UNL1        0.0010
     11 C          59.0863   87.5902    8.5385 C.ar    1  UNL1        0.0001
     12 C          59.5684   86.5636    7.5570 C.ar    1  UNL1        0.0009
     13 C          60.9120   85.9225    7.7413 C.ar    1  UNL1        0.0114
     14 C          61.7734   86.3082    8.9071 C.ar    1  UNL1        0.0578
     15 CL         63.1169   85.6672    9.0914 Cl      1  UNL1       -0.0822
     16 C          64.2567   85.9813   13.9352 C.3     1  UNL1        0.1408
     17 C          62.7871   84.2937   15.2551 C.ar    1  UNL1        0.1057
     18 C          62.1386   82.9458   15.3667 C.ar    1  UNL1        0.0182
     19 C          62.3114   81.9373   14.2698 C.ar    1  UNL1        0.0036
     20 C          63.1327   82.2769   13.0614 C.ar    1  UNL1        0.0295
     21 C          63.7811   83.6248   12.9498 C.ar    1  UNL1        0.1392
     22 F          64.6023   83.9644   11.7414 F       1  UNL1       -0.2044
     23 C          63.6083   84.6332   14.0467 C.ar    1  UNL1        0.0451
     24 C          62.4416   86.3107   17.4489 C.3     1  UNL1        0.1816
     25 S          62.6143   85.3022   16.3520 S.O2    1  UNL1        0.0103
     26 O          61.1348   85.3168   16.1056 O.2     1  UNL1       -0.1686
     27 O          64.0938   85.2876   16.5985 O.2     1  UNL1       -0.1686
     28 C          63.4942   91.0026   12.8375 C.3     1  UNL1        0.1337
     29 C          64.8395   91.6122   12.5758 C.3     1  UNL1        0.1000
     30 C          65.7573   91.9235   13.7206 C.ar    1  UNL1       -0.0061
     31 C          65.1940   92.1604   15.0905 C.ar    1  UNL1       -0.0029
     32 C          66.1118   92.4718   16.2353 C.ar    1  UNL1       -0.0003
     33 C          67.5930   92.5462   16.0103 C.ar    1  UNL1       -0.0000
     34 C          68.1563   92.3093   14.6404 C.ar    1  UNL1       -0.0003
     35 C          67.2385   91.9980   13.4956 C.ar    1  UNL1       -0.0029
     36 N          65.2670   91.9104   11.1693 N.3     1  UNL1       -0.2935
     37 H          64.6788   91.3455   10.5567 H       1  UNL1        0.1236
     38 C          65.2086   93.3164   10.6498 C.3     1  UNL1        0.0692
     39 C          66.4569   94.1459   10.5887 C.3     1  UNL1        0.0230
     40 C          67.4354   93.9472    9.4693 C.3     1  UNL1        0.0431
     41 C          68.2665   92.6998    9.4121 C.2     1  UNL1        0.0504
     42 O          68.8120   92.2216    8.0991 O.co2   1  UNL1       -0.5492
     43 O          68.5521   91.9307   10.6678 O.co2   1  UNL1       -0.5492
@<TRIPOS>UNITY_ATOM_ATTR
42 1
charge -1
@<TRIPOS>BOND
     1    24    25    1
     2    25    26    2
     3    25    27    2
     4    25    17    1
     5    17    18   ar
     6    18    19   ar
     7    19    20   ar
     8    20    21   ar
     9    21    22    1
    10    21    23   ar
    11    23    16    1
    12    16     1    1
    13     1     2   ar
    14     2     3   ar
    15     3     9    1
    16     9    10   ar
    17    10    11   ar
    18    11    12   ar
    19    12    13   ar
    20    13    14   ar
    21    14    15    1
    22     3     4   ar
    23     4     5    2
    24     4     6   ar
    25     6    28    1
    26    29    28    1
    27    29    36    1
    28    36    38    1
    29    38    39    1
    30    39    40    1
    31    40    41    1
    32    41    42   ar
    33    41    43   ar
    34    29    30    1
    35    30    31   ar
    36    31    32   ar
    37    32    33   ar
    38    33    34   ar
    39    34    35   ar
    40     6     7   ar
    41     7     8    2
    42    23    17   ar
    43     7     1   ar
    44    14     9   ar
    45    35    30   ar
    46    36    37    1
@<TRIPOS>MOLECULE
*****
 43 46 0 0 0
SMALL
GASTEIGER

@<TRIPOS>ATOM
      1 N          63.4840   89.0490   12.8820 N.ar    1  UNL1       -0.2754
      2 C          62.6352   88.8191   11.6667 C.ar    1  UNL1        0.0848
      3 C          62.2967   87.4210   11.2418 C.ar    1  UNL1        0.0744
      4 C          62.8071   86.2526   12.0322 C.ar    1  UNL1        0.2657
      5 O          62.4686   84.8544   11.6073 O.2     1  UNL1       -0.2668
      6 N          63.6558   86.4825   13.2473 N.ar    1  UNL1       -0.2470
      7 C          63.9943   87.8806   13.6722 C.ar    1  UNL1        0.3341
      8 O          64.8432   88.1105   14.8875 O.2     1  UNL1       -0.2462
      9 C          61.4479   87.1911   10.0267 C.ar    1  UNL1        0.0166
     10 C          61.9492   86.3160    8.9164 C.ar    1  UNL1        0.0010
     11 C          61.1003   86.0861    7.7011 C.ar    1  UNL1        0.0001
     12 C          59.7503   86.7314    7.5962 C.ar    1  UNL1        0.0009
     13 C          59.2491   87.6065    8.7066 C.ar    1  UNL1        0.0114
     14 C          60.0979   87.8364    9.9218 C.ar    1  UNL1        0.0578
     15 CL         59.5966   88.7115   11.0321 Cl      1  UNL1       -0.0822
     16 C          63.8225   90.4471   13.3068 C.3     1  UNL1        0.1408
     17 C          65.7354   92.1059   12.7241 C.ar    1  UNL1        0.1057
     18 C          66.3891   93.0465   11.7557 C.ar    1  UNL1        0.0182
     19 C          65.7835   93.2691   10.4015 C.ar    1  UNL1        0.0036
     20 C          64.5243   92.5510   10.0158 C.ar    1  UNL1        0.0295
     21 C          63.8707   91.6104   10.9842 C.ar    1  UNL1        0.1392
     22 F          62.6115   90.8923   10.5985 F       1  UNL1       -0.2044
     23 C          64.4762   91.3878   12.3383 C.ar    1  UNL1        0.0451
     24 C          66.9465   91.6606   15.4324 C.3     1  UNL1        0.1816
     25 S          66.3409   91.8833   14.0783 S.O2    1  UNL1        0.0103
     26 O          65.0944   92.4131   14.7228 O.2     1  UNL1       -0.1686
     27 O          67.5875   91.3535   13.4338 O.2     1  UNL1       -0.1686
     28 C          64.1662   85.3141   14.0377 C.3     1  UNL1        0.1337
     29 C          63.2015   84.4017   14.7353 C.3     1  UNL1        0.1000
     30 C          62.9528   83.0226   14.2003 C.ar    1  UNL1       -0.0061
     31 C          63.9576   82.3781   13.2919 C.ar    1  UNL1       -0.0029
     32 C          63.7089   80.9990   12.7569 C.ar    1  UNL1       -0.0003
     33 C          62.4556   80.2644   13.1304 C.ar    1  UNL1       -0.0000
     34 C          61.4509   80.9088   14.0388 C.ar    1  UNL1       -0.0003
     35 C          61.6995   82.2879   14.5737 C.ar    1  UNL1       -0.0029
     36 N          62.4853   84.8684   15.9679 N.3     1  UNL1       -0.2935
     37 H          62.2363   84.0332   16.4978 H       1  UNL1        0.1236
     38 C          63.1682   85.8004   16.9245 C.3     1  UNL1        0.0692
     39 C          62.4392   87.0009   17.4513 C.3     1  UNL1        0.0230
     40 C          63.1461   88.3194   17.5603 C.3     1  UNL1        0.0431
     41 C          62.6839   89.4881   16.7414 C.2     1  UNL1        0.0504
     42 O          63.3958   90.8045   16.8444 O.co2   1  UNL1       -0.5492
     43 O          61.5098   89.3406   15.8196 O.co2   1  UNL1       -0.5492
@<TRIPOS>UNITY_ATOM_ATTR
42 1
charge -1
@<TRIPOS>BOND
     1    24    25    1
     2    25    26    2
     3    25    27    2
     4    25    17    1
     5    17    18   ar
     6    18    19   ar
     7    19    20   ar
     8    20    21   ar
     9    21    22    1
    10    21    23   ar
    11    23    16    1
    12    16     1    1
    13     1     2   ar
    14     2     3   ar
    15     3     9    1
    16     9    10   ar
    17    10    11   ar
    18    11    12   ar
    19    12    13   ar
    20    13    14   ar
    21    14    15    1
    22     3     4   ar
    23     4     5    2
    24     4     6   ar
    25     6    28    1
    26    29    28    1
    27    29    36    1
    28    36    38    1
    29    38    39    1
    30    39    40    1
    31    40    41    1
    32    41    42   ar
    33    41    43   ar
    34    29    30    1
    35    30    31   ar
    36    31    32   ar
    37    32    33   ar
    38    33    34   ar
    39    34    35   ar
    40     6     7   ar
    41     7     8    2
    42    23    17   ar
    43     7     1   ar
    44    14     9   ar
    45    35    30   ar
    46    36    37    1
@<TRIPOS>MOLECULE
*****
 43 46 0 0 0
SMALL
GASTEIGER

@<TRIPOS>ATOM
      1 N          63.6863   85.9185   12.9017 N.ar    1  UNL1       -0.2754
      2 C          64.2039   87.1338   13.6125 C.ar    1  UNL1        0.0848
      3 C          63.5388   88.4625   13.4078 C.ar    1  UNL1        0.0744
      4 C          62.3560   88.5760   12.4922 C.ar    1  UNL1        0.2657
      5 O          61.6908   89.9048   12.2874 O.2     1  UNL1       -0.2668
      6 N          61.8385   87.3607   11.7814 N.ar    1  UNL1       -0.2470
      7 C          62.5036   86.0320   11.9862 C.ar    1  UNL1        0.3341
      8 O          61.9860   84.8167   11.2753 O.2     1  UNL1       -0.2462
      9 C          64.0563   89.6778   14.1185 C.ar    1  UNL1        0.0166
     10 C          64.9970   90.6127   13.4178 C.ar    1  UNL1        0.0010
     11 C          65.5146   91.8280   14.1285 C.ar    1  UNL1        0.0001
     12 C          65.0915   92.1084   15.5401 C.ar    1  UNL1        0.0009
     13 C          64.1507   91.1735   16.2408 C.ar    1  UNL1        0.0114
     14 C          63.6332   89.9582   15.5300 C.ar    1  UNL1        0.0578
     15 CL         62.6925   89.0233   16.2308 Cl      1  UNL1       -0.0822
     16 C          64.3515   84.5897   13.1065 C.3     1  UNL1        0.1408
     17 C          62.6637   83.1058   14.4102 C.ar    1  UNL1        0.1057
     18 C          61.8350   81.8594   14.5074 C.ar    1  UNL1        0.0182
     19 C          61.8653   80.8502   13.3980 C.ar    1  UNL1        0.0036
     20 C          62.7243   81.0876   12.1915 C.ar    1  UNL1        0.0295
     21 C          63.5530   82.3341   12.0943 C.ar    1  UNL1        0.1392
     22 F          64.4120   82.5714   10.8877 F       1  UNL1       -0.2044
     23 C          63.5227   83.3432   13.2036 C.ar    1  UNL1        0.0451
     24 C          62.6032   85.1242   16.6289 C.3     1  UNL1        0.1816
     25 S          62.6335   84.1150   15.5196 S.O2    1  UNL1        0.0103
     26 O          63.8951   83.5322   16.0842 O.2     1  UNL1       -0.1686
     27 O          61.3720   84.6978   14.9550 O.2     1  UNL1       -0.1686
     28 C          60.6557   87.4742   10.8658 C.3     1  UNL1        0.1337
     29 C          60.8616   87.7388    9.4038 C.3     1  UNL1        0.1000
     30 C          61.2654   86.6209    8.4889 C.ar    1  UNL1       -0.0061
     31 C          62.6788   86.1187    8.4966 C.ar    1  UNL1       -0.0029
     32 C          63.0826   85.0007    7.5816 C.ar    1  UNL1       -0.0003
     33 C          62.0729   84.3849    6.6590 C.ar    1  UNL1       -0.0000
     34 C          60.6595   84.8871    6.6512 C.ar    1  UNL1       -0.0003
     35 C          60.2557   86.0050    7.5661 C.ar    1  UNL1       -0.0029
     36 N          60.6638   89.1214    8.8567 N.3     1  UNL1       -0.2935
     37 H          61.4533   89.3093    8.2388 H       1  UNL1        0.1236
     38 C          59.4212   89.4517    8.0842 C.3     1  UNL1        0.0692
     39 C          59.4126   89.3289    6.5892 C.3     1  UNL1        0.0230
     40 C          59.6911   90.5311    5.7364 C.3     1  UNL1        0.0431
     41 C          58.5545   91.3063    5.1388 C.2     1  UNL1        0.0504
     42 O          58.8330   92.4384    4.1949 O.co2   1  UNL1       -0.5492
     43 O          57.1393   90.9493    5.4849 O.co2   1  UNL1       -0.5492
@<TRIPOS>UNITY_ATOM_ATTR
42 1
charge -1
@<TRIPOS>BOND
     1    24    25    1
     2    25    26    2
     3    25    27    2
     4    25    17    1
     5    17    18   ar
     6    18    19   ar
     7    19    20   ar
     8    20    21   ar
     9    21    22    1
    10    21    23   ar
    11    23    16    1
    12    16     1    1
    13     1     2   ar
    14     2     3   ar
    15     3     9    1
    16     9    10   ar
    17    10    11   ar
    18    11    12   ar
    19    12    13   ar
    20    13    14   ar
    21    14    15    1
    22     3     4   ar
    23     4     5    2
    24     4     6   ar
    25     6    28    1
    26    29    28    1
    27    29    36    1
    28    36    38    1
    29    38    39    1
    30    39    40    1
    31    40    41    1
    32    41    42   ar
    33    41    43   ar
    34    29    30    1
    35    30    31   ar
    36    31    32   ar
    37    32    33   ar
    38    33    34   ar
    39    34    35   ar
    40     6     7   ar
    41     7     8    2
    42    23    17   ar
    43     7     1   ar
    44    14     9   ar
    45    35    30   ar
    46    36    37    1
@<TRIPOS>MOLECULE
*****
 43 46 0 0 0
SMALL
GASTEIGER

@<TRIPOS>ATOM
      1 N          63.4879   86.0478   12.8577 N.ar    1  UNL1       -0.2754
      2 C          62.6192   85.9414   11.6395 C.ar    1  UNL1        0.0848
      3 C          62.0174   87.1764   11.0373 C.ar    1  UNL1        0.0744
      4 C          62.2843   88.5178   11.6533 C.ar    1  UNL1        0.2657
      5 O          61.6825   89.7528   11.0511 O.2     1  UNL1       -0.2668
      6 N          63.1530   88.6241   12.8715 N.ar    1  UNL1       -0.2470
      7 C          63.7548   87.3892   13.4737 C.ar    1  UNL1        0.3341
      8 O          64.6236   87.4956   14.6919 O.2     1  UNL1       -0.2462
      9 C          61.1487   87.0700    9.8191 C.ar    1  UNL1        0.0166
     10 C          59.7966   87.7192    9.8032 C.ar    1  UNL1        0.0010
     11 C          58.9278   87.6129    8.5850 C.ar    1  UNL1        0.0001
     12 C          59.4112   86.8573    7.3827 C.ar    1  UNL1        0.0009
     13 C          60.7634   86.2081    7.3987 C.ar    1  UNL1        0.0114
     14 C          61.6321   86.3144    8.6168 C.ar    1  UNL1        0.0578
     15 CL         62.9842   85.6653    8.6327 Cl      1  UNL1       -0.0822
     16 C          64.0897   84.8128   13.4599 C.3     1  UNL1        0.1408
     17 C          63.1734   82.5285   12.6277 C.ar    1  UNL1        0.1057
     18 C          62.3249   81.3113   12.8474 C.ar    1  UNL1        0.0182
     19 C          61.5441   81.1611   14.1193 C.ar    1  UNL1        0.0036
     20 C          61.6118   82.2282   15.1714 C.ar    1  UNL1        0.0295
     21 C          62.4603   83.4454   14.9516 C.ar    1  UNL1        0.1392
     22 F          62.5280   84.5124   16.0037 F       1  UNL1       -0.2044
     23 C          63.2411   83.5956   13.6797 C.ar    1  UNL1        0.0451
     24 C          64.7352   82.8290   10.0839 C.3     1  UNL1        0.1816
     25 S          63.9544   82.6788   11.3557 S.O2    1  UNL1        0.0103
     26 O          65.1862   82.1831   12.0534 O.2     1  UNL1       -0.1686
     27 O          62.7225   83.1745   10.6580 O.2     1  UNL1       -0.1686
     28 C          63.4199   89.9656   13.4876 C.3     1  UNL1        0.1337
     29 C          64.5196   90.8324   12.9498 C.3     1  UNL1        0.1000
     30 C          65.5394   91.4152   13.8827 C.ar    1  UNL1       -0.0061
     31 C          65.1295   91.8714   15.2516 C.ar    1  UNL1       -0.0029
     32 C          66.1494   92.4542   16.1846 C.ar    1  UNL1       -0.0003
     33 C          67.5790   92.5808   15.7486 C.ar    1  UNL1       -0.0000
     34 C          67.9889   92.1245   14.3797 C.ar    1  UNL1       -0.0003
     35 C          66.9691   91.5418   13.4468 C.ar    1  UNL1       -0.0029
     36 N          64.5996   91.1164   11.4791 N.3     1  UNL1       -0.2935
     37 H          63.8901   90.5384   11.0286 H       1  UNL1        0.1236
     38 C          64.4035   92.5150   10.9736 C.3     1  UNL1        0.0692
     39 C          65.5117   93.5186   11.0950 C.3     1  UNL1        0.0230
     40 C          66.3476   93.8613    9.8975 C.3     1  UNL1        0.0431
     41 C          67.6954   93.2281    9.7175 C.2     1  UNL1        0.0504
     42 O          67.8423   91.7381    9.8093 O.co2   1  UNL1       -0.5492
     43 O          68.8963   94.0847    9.4458 O.co2   1  UNL1       -0.5492
@<TRIPOS>UNITY_ATOM_ATTR
42 1
charge -1
@<TRIPOS>BOND
     1    24    25    1
     2    25    26    2
     3    25    27    2
     4    25    17    1
     5    17    18   ar
     6    18    19   ar
     7    19    20   ar
     8    20    21   ar
     9    21    22    1
    10    21    23   ar
    11    23    16    1
    12    16     1    1
    13     1     2   ar
    14     2     3   ar
    15     3     9    1
    16     9    10   ar
    17    10    11   ar
    18    11    12   ar
    19    12    13   ar
    20    13    14   ar
    21    14    15    1
    22     3     4   ar
    23     4     5    2
    24     4     6   ar
    25     6    28    1
    26    29    28    1
    27    29    36    1
    28    36    38    1
    29    38    39    1
    30    39    40    1
    31    40    41    1
    32    41    42   ar
    33    41    43   ar
    34    29    30    1
    35    30    31   ar
    36    31    32   ar
    37    32    33   ar
    38    33    34   ar
    39    34    35   ar
    40     6     7   ar
    41     7     8    2
    42    23    17   ar
    43     7     1   ar
    44    14     9   ar
    45    35    30   ar
    46    36    37    1
@<TRIPOS>MOLECULE
*****
 43 46 0 0 0
SMALL
GASTEIGER

@<TRIPOS>ATOM
      1 N          64.5866   91.2328   13.3076 N.ar    1  UNL1       -0.2754
      2 C          64.4761   90.1365   14.3255 C.ar    1  UNL1        0.0848
      3 C          63.8771   88.8155   13.9429 C.ar    1  UNL1        0.0744
      4 C          63.3887   88.5909   12.5425 C.ar    1  UNL1        0.2657
      5 O          62.7897   87.2700   12.1600 O.2     1  UNL1       -0.2668
      6 N          63.4992   89.6872   11.5248 N.ar    1  UNL1       -0.2470
      7 C          64.0982   91.0081   11.9073 C.ar    1  UNL1        0.3341
      8 O          64.2087   92.1045   10.8895 O.2     1  UNL1       -0.2462
      9 C          63.7665   87.7193   14.9607 C.ar    1  UNL1        0.0166
     10 C          64.2380   86.3351   14.6262 C.ar    1  UNL1        0.0010
     11 C          64.1274   85.2387   15.6440 C.ar    1  UNL1        0.0001
     12 C          63.5455   85.5266   16.9962 C.ar    1  UNL1        0.0009
     13 C          63.0740   86.9108   17.3306 C.ar    1  UNL1        0.0114
     14 C          63.1846   88.0071   16.3129 C.ar    1  UNL1        0.0578
     15 CL         62.7132   89.3912   16.6473 Cl      1  UNL1       -0.0822
     16 C          65.1856   92.5538   13.6902 C.3     1  UNL1        0.1408
     17 C          67.7827   92.6059   13.6433 C.ar    1  UNL1        0.1057
     18 C          69.0944   92.6525   14.3694 C.ar    1  UNL1        0.0182
     19 C          69.1206   92.6935   15.8686 C.ar    1  UNL1        0.0036
     20 C          67.8352   92.6879   16.6417 C.ar    1  UNL1        0.0295
     21 C          66.5235   92.6413   15.9156 C.ar    1  UNL1        0.1392
     22 F          65.2381   92.6357   16.6886 F       1  UNL1       -0.2044
     23 C          66.4973   92.6003   14.4164 C.ar    1  UNL1        0.0451
     24 C          67.7301   92.5239   10.6449 C.3     1  UNL1        0.1816
     25 S          67.7564   92.5649   12.1441 S.O2    1  UNL1        0.0103
     26 O          68.6152   91.3353   12.1626 O.2     1  UNL1       -0.1686
     27 O          66.8976   93.7945   12.1255 O.2     1  UNL1       -0.1686
     28 C          63.0108   89.4626   10.1243 C.3     1  UNL1        0.1337
     29 C          61.5615   89.6634    9.7942 C.3     1  UNL1        0.1000
     30 C          60.8050   88.5970    9.0590 C.ar    1  UNL1       -0.0061
     31 C          61.1823   87.1555    9.2314 C.ar    1  UNL1       -0.0029
     32 C          60.4258   86.0891    8.4962 C.ar    1  UNL1       -0.0003
     33 C          59.2920   86.4643    7.5886 C.ar    1  UNL1       -0.0000
     34 C          58.9147   87.9058    7.4162 C.ar    1  UNL1       -0.0003
     35 C          59.6712   88.9721    8.1514 C.ar    1  UNL1       -0.0029
     36 N          60.8686   90.9306   10.1994 N.3     1  UNL1       -0.2935
     37 H          60.4333   91.3100    9.3585 H       1  UNL1        0.1236
     38 C          59.8080   90.8995   11.2596 C.3     1  UNL1        0.0692
     39 C          59.7557   89.7612   12.2350 C.3     1  UNL1        0.0230
     40 C          58.5984   88.8071   12.2128 C.3     1  UNL1        0.0431
     41 C          57.8424   88.5157   13.4752 C.2     1  UNL1        0.0504
     42 O          56.3818   88.1795   13.4140 O.co2   1  UNL1       -0.5492
     43 O          58.5468   88.5606   14.7987 O.co2   1  UNL1       -0.5492
@<TRIPOS>UNITY_ATOM_ATTR
42 1
charge -1
@<TRIPOS>BOND
     1    24    25    1
     2    25    26    2
     3    25    27    2
     4    25    17    1
     5    17    18   ar
     6    18    19   ar
     7    19    20   ar
     8    20    21   ar
     9    21    22    1
    10    21    23   ar
    11    23    16    1
    12    16     1    1
    13     1     2   ar
    14     2     3   ar
    15     3     9    1
    16     9    10   ar
    17    10    11   ar
    18    11    12   ar
    19    12    13   ar
    20    13    14   ar
    21    14    15    1
    22     3     4   ar
    23     4     5    2
    24     4     6   ar
    25     6    28    1
    26    29    28    1
    27    29    36    1
    28    36    38    1
    29    38    39    1
    30    39    40    1
    31    40    41    1
    32    41    42   ar
    33    41    43   ar
    34    29    30    1
    35    30    31   ar
    36    31    32   ar
    37    32    33   ar
    38    33    34   ar
    39    34    35   ar
    40     6     7   ar
    41     7     8    2
    42    23    17   ar
    43     7     1   ar
    44    14     9   ar
    45    35    30   ar
    46    36    37    1
@<TRIPOS>MOLECULE
*****
 43 46 0 0 0
SMALL
GASTEIGER

@<TRIPOS>ATOM
      1 N          62.9091   87.5258   11.3640 N.ar    1  UNL1       -0.2754
      2 C          62.7205   86.0493   11.5497 C.ar    1  UNL1        0.0848
      3 C          63.2105   85.3821   12.8006 C.ar    1  UNL1        0.0744
      4 C          63.8892   86.1915   13.8658 C.ar    1  UNL1        0.2657
      5 O          64.3792   85.5243   15.1167 O.2     1  UNL1       -0.2668
      6 N          64.0778   87.6679   13.6800 N.ar    1  UNL1       -0.2470
      7 C          63.5877   88.3351   12.4291 C.ar    1  UNL1        0.3341
      8 O          63.7763   89.8116   12.2433 O.2     1  UNL1       -0.2462
      9 C          63.0219   83.9057   12.9864 C.ar    1  UNL1        0.0166
     10 C          62.1631   83.3942   14.1048 C.ar    1  UNL1        0.0010
     11 C          61.9745   81.9177   14.2906 C.ar    1  UNL1        0.0001
     12 C          62.6447   80.9528   13.3581 C.ar    1  UNL1        0.0009
     13 C          63.5036   81.4643   12.2397 C.ar    1  UNL1        0.0114
     14 C          63.6922   82.9408   12.0539 C.ar    1  UNL1        0.0578
     15 CL         64.5510   83.4522   10.9355 Cl      1  UNL1       -0.0822
     16 C          62.4190   88.1929   10.1131 C.3     1  UNL1        0.1408
     17 C          59.8805   88.1608    9.5609 C.ar    1  UNL1        0.1057
     18 C          58.7228   87.5792    8.8049 C.ar    1  UNL1        0.0182
     19 C          58.9459   86.4483    7.8452 C.ar    1  UNL1        0.0036
     20 C          60.3267   85.8988    7.6415 C.ar    1  UNL1        0.0295
     21 C          61.4844   86.4804    8.3974 C.ar    1  UNL1        0.1392
     22 F          62.8652   85.9309    8.1936 F       1  UNL1       -0.2044
     23 C          61.2613   87.6113    9.3571 C.ar    1  UNL1        0.0451
     24 C          59.4344   90.4228   11.4803 C.3     1  UNL1        0.1816
     25 S          59.6575   89.2918   10.5206 S.O2    1  UNL1        0.0103
     26 O          59.5510   88.3117   11.6510 O.2     1  UNL1       -0.1686
     27 O          59.7639   90.2720    9.3902 O.2     1  UNL1       -0.1686
     28 C          64.7564   88.4772   14.7451 C.3     1  UNL1        0.1337
     29 C          64.2604   89.8549   15.0706 C.3     1  UNL1        0.1000
     30 C          65.1825   91.0318   14.9505 C.ar    1  UNL1       -0.0061
     31 C          65.4027   91.9353   16.1275 C.ar    1  UNL1       -0.0029
     32 C          66.3249   93.1122   16.0074 C.ar    1  UNL1       -0.0003
     33 C          67.0268   93.3858   14.7103 C.ar    1  UNL1       -0.0000
     34 C          66.8066   92.4823   13.5333 C.ar    1  UNL1       -0.0003
     35 C          65.8845   91.3054   13.6534 C.ar    1  UNL1       -0.0029
     36 N          62.8422   90.0556   15.5162 N.3     1  UNL1       -0.2935
     37 H          62.2524   89.9062   14.6975 H       1  UNL1        0.1236
     38 C          62.2755   89.2103   16.6181 C.3     1  UNL1        0.0692
     39 C          63.1563   88.2394   17.3472 C.3     1  UNL1        0.0230
     40 C          62.5490   87.0789   18.0784 C.3     1  UNL1        0.0431
     41 C          61.9409   85.9434   17.3098 C.2     1  UNL1        0.0504
     42 O          62.6632   84.6323   17.2117 O.co2   1  UNL1       -0.5492
     43 O          60.6107   86.1189   16.6394 O.co2   1  UNL1       -0.5492
@<TRIPOS>UNITY_ATOM_ATTR
42 1
charge -1
@<TRIPOS>BOND
     1    24    25    1
     2    25    26    2
     3    25    27    2
     4    25    17    1
     5    17    18   ar
     6    18    19   ar
     7    19    20   ar
     8    20    21   ar
     9    21    22    1
    10    21    23   ar
    11    23    16    1
    12    16     1    1
    13     1     2   ar
    14     2     3   ar
    15     3     9    1
    16     9    10   ar
    17    10    11   ar
    18    11    12   ar
    19    12    13   ar
    20    13    14   ar
    21    14    15    1
    22     3     4   ar
    23     4     5    2
    24     4     6   ar
    25     6    28    1
    26    29    28    1
    27    29    36    1
    28    36    38    1
    29    38    39    1
    30    39    40    1
    31    40    41    1
    32    41    42   ar
    33    41    43   ar
    34    29    30    1
    35    30    31   ar
    36    31    32   ar
    37    32    33   ar
    38    33    34   ar
    39    34    35   ar
    40     6     7   ar
    41     7     8    2
    42    23    17   ar
    43     7     1   ar
    44    14     9   ar
    45    35    30   ar
    46    36    37    1
@<TRIPOS>MOLECULE
*****
 43 46 0 0 0
SMALL
GASTEIGER

@<TRIPOS>ATOM
      1 N          63.4253   86.4553   12.7508 N.ar    1  UNL1       -0.2754
      2 C          62.5728   86.2500   11.5337 C.ar    1  UNL1        0.0848
      3 C          61.8861   87.4196   10.8931 C.ar    1  UNL1        0.0744
      4 C          62.0518   88.7945   11.4696 C.ar    1  UNL1        0.2657
      5 O          61.3651   89.9642   10.8289 O.2     1  UNL1       -0.2668
      6 N          62.9042   88.9998   12.6866 N.ar    1  UNL1       -0.2470
      7 C          63.5910   87.8301   13.3272 C.ar    1  UNL1        0.3341
      8 O          64.4434   88.0354   14.5443 O.2     1  UNL1       -0.2462
      9 C          61.0337   87.2144    9.6760 C.ar    1  UNL1        0.0166
     10 C          59.6757   87.8463    9.5963 C.ar    1  UNL1        0.0010
     11 C          58.8232   87.6411    8.3792 C.ar    1  UNL1        0.0001
     12 C          59.3288   86.8040    7.2419 C.ar    1  UNL1        0.0009
     13 C          60.6869   86.1721    7.3216 C.ar    1  UNL1        0.0114
     14 C          61.5393   86.3773    8.5387 C.ar    1  UNL1        0.0578
     15 CL         62.8974   85.7454    8.6183 Cl      1  UNL1       -0.0822
     16 C          64.1120   85.2857   13.3914 C.3     1  UNL1        0.1408
     17 C          63.2409   82.9139   12.7865 C.ar    1  UNL1        0.1057
     18 C          62.4553   81.6877   13.1461 C.ar    1  UNL1        0.0182
     19 C          61.7551   81.6072   14.4702 C.ar    1  UNL1        0.0036
     20 C          61.8405   82.7529   15.4346 C.ar    1  UNL1        0.0295
     21 C          62.6261   83.9790   15.0751 C.ar    1  UNL1        0.1392
     22 F          62.7115   85.1246   16.0396 F       1  UNL1       -0.2044
     23 C          63.3263   84.0595   13.7510 C.ar    1  UNL1        0.0451
     24 C          64.6414   83.0750   10.1384 C.3     1  UNL1        0.1816
     25 S          63.9412   82.9944   11.4624 S.O2    1  UNL1        0.0103
     26 O          65.2505   82.7119   12.1376 O.2     1  UNL1       -0.1686
     27 O          62.6319   83.2769   10.7872 O.2     1  UNL1       -0.1686
     28 C          63.0699   90.3747   13.2631 C.3     1  UNL1        0.1337
     29 C          64.4438   90.9288   13.4981 C.3     1  UNL1        0.1000
     30 C          65.1623   91.6458   12.3938 C.ar    1  UNL1       -0.0061
     31 C          66.6295   91.9331   12.5162 C.ar    1  UNL1       -0.0029
     32 C          67.3480   92.6502   11.4117 C.ar    1  UNL1       -0.0003
     33 C          66.5993   93.0799   10.1850 C.ar    1  UNL1       -0.0000
     34 C          65.1322   92.7925   10.0626 C.ar    1  UNL1       -0.0003
     35 C          64.4137   92.0755   11.1670 C.ar    1  UNL1       -0.0029
     36 N          65.0992   90.7659   14.8375 N.3     1  UNL1       -0.2935
     37 H          66.0837   90.5653   14.6611 H       1  UNL1        0.1236
     38 C          65.0574   91.8860   15.8342 C.3     1  UNL1        0.0692
     39 C          66.3332   92.5182   16.3061 C.3     1  UNL1        0.0230
     40 C          67.6448   92.0903   15.7172 C.3     1  UNL1        0.0431
     41 C          68.7048   93.1109   15.4263 C.2     1  UNL1        0.0504
     42 O          68.6913   94.4305   16.1394 O.co2   1  UNL1       -0.5492
     43 O          69.7784   92.8120   14.4223 O.co2   1  UNL1       -0.5492
@<TRIPOS>UNITY_ATOM_ATTR
42 1
charge -1
@<TRIPOS>BOND
     1    24    25    1
     2    25    26    2
     3    25    27    2
     4    25    17    1
     5    17    18   ar
     6    18    19   ar
     7    19    20   ar
     8    20    21   ar
     9    21    22    1
    10    21    23   ar
    11    23    16    1
    12    16     1    1
    13     1     2   ar
    14     2     3   ar
    15     3     9    1
    16     9    10   ar
    17    10    11   ar
    18    11    12   ar
    19    12    13   ar
    20    13    14   ar
    21    14    15    1
    22     3     4   ar
    23     4     5    2
    24     4     6   ar
    25     6    28    1
    26    29    28    1
    27    29    36    1
    28    36    38    1
    29    38    39    1
    30    39    40    1
    31    40    41    1
    32    41    42   ar
    33    41    43   ar
    34    29    30    1
    35    30    31   ar
    36    31    32   ar
    37    32    33   ar
    38    33    34   ar
    39    34    35   ar
    40     6     7   ar
    41     7     8    2
    42    23    17   ar
    43     7     1   ar
    44    14     9   ar
    45    35    30   ar
    46    36    37    1
@<TRIPOS>MOLECULE
*****
 43 46 0 0 0
SMALL
GASTEIGER

@<TRIPOS>ATOM
      1 N          63.7612   88.0672   13.1380 N.ar    1  UNL1       -0.2754
      2 C          64.4861   89.3732   12.9998 C.ar    1  UNL1        0.0848
      3 C          63.9389   90.4434   12.1025 C.ar    1  UNL1        0.0744
      4 C          62.6668   90.2076   11.3433 C.ar    1  UNL1        0.2657
      5 O          62.1196   91.2778   10.4460 O.2     1  UNL1       -0.2668
      6 N          61.9420   88.9017   11.4815 N.ar    1  UNL1       -0.2470
      7 C          62.4891   87.8315   12.3789 C.ar    1  UNL1        0.3341
      8 O          61.7642   86.5255   12.5171 O.2     1  UNL1       -0.2462
      9 C          64.6638   91.7493   11.9642 C.ar    1  UNL1        0.0166
     10 C          64.6866   92.4581   10.6425 C.ar    1  UNL1        0.0010
     11 C          65.4115   93.7641   10.5042 C.ar    1  UNL1        0.0001
     12 C          66.1135   94.3612   11.6877 C.ar    1  UNL1        0.0009
     13 C          66.0906   93.6523   13.0095 C.ar    1  UNL1        0.0114
     14 C          65.3657   92.3464   13.1478 C.ar    1  UNL1        0.0578
     15 CL         65.3428   91.6376   14.4695 Cl      1  UNL1       -0.0822
     16 C          64.3084   86.9970   14.0354 C.3     1  UNL1        0.1408
     17 C          63.3101   85.3947   15.8203 C.ar    1  UNL1        0.1057
     18 C          62.7094   85.1738   17.1769 C.ar    1  UNL1        0.0182
     19 C          62.5062   86.3344   18.1051 C.ar    1  UNL1        0.0036
     20 C          62.9036   87.7159   17.6768 C.ar    1  UNL1        0.0295
     21 C          63.5044   87.9368   16.3202 C.ar    1  UNL1        0.1392
     22 F          63.9019   89.3183   15.8919 F       1  UNL1       -0.2044
     23 C          63.7076   86.7761   15.3920 C.ar    1  UNL1        0.0451
     24 C          63.7166   83.0734   13.9638 C.3     1  UNL1        0.1816
     25 S          63.5134   84.2340   14.8920 S.O2    1  UNL1        0.0103
     26 O          64.9995   84.3895   15.0230 O.2     1  UNL1       -0.1686
     27 O          62.0272   84.0785   14.7611 O.2     1  UNL1       -0.1686
     28 C          60.6698   88.6659   10.7224 C.3     1  UNL1        0.1337
     29 C          60.7052   88.5031    9.2317 C.3     1  UNL1        0.1000
     30 C          61.2042   87.2235    8.6288 C.ar    1  UNL1       -0.0061
     31 C          60.3358   86.4533    7.6787 C.ar    1  UNL1       -0.0029
     32 C          60.8349   85.1736    7.0758 C.ar    1  UNL1       -0.0003
     33 C          62.2024   84.6643    7.4228 C.ar    1  UNL1       -0.0000
     34 C          63.0708   85.4345    8.3728 C.ar    1  UNL1       -0.0003
     35 C          62.5718   86.7141    8.9758 C.ar    1  UNL1       -0.0029
     36 N          60.2416   89.6198    8.3440 N.3     1  UNL1       -0.2935
     37 H          61.0464   89.9063    7.7866 H       1  UNL1        0.1236
     38 C          59.1092   89.3956    7.3862 C.3     1  UNL1        0.0692
     39 C          59.3131   89.6226    5.9175 C.3     1  UNL1        0.0230
     40 C          59.7112   90.9793    5.4164 C.3     1  UNL1        0.0431
     41 C          58.7069   91.8435    4.7133 C.2     1  UNL1        0.0504
     42 O          57.2587   91.7753    5.0980 O.co2   1  UNL1       -0.5492
     43 O          59.1508   92.7760    3.6255 O.co2   1  UNL1       -0.5492
@<TRIPOS>UNITY_ATOM_ATTR
42 1
charge -1
@<TRIPOS>BOND
     1    24    25    1
     2    25    26    2
     3    25    27    2
     4    25    17    1
     5    17    18   ar
     6    18    19   ar
     7    19    20   ar
     8    20    21   ar
     9    21    22    1
    10    21    23   ar
    11    23    16    1
    12    16     1    1
    13     1     2   ar
    14     2     3   ar
    15     3     9    1
    16     9    10   ar
    17    10    11   ar
    18    11    12   ar
    19    12    13   ar
    20    13    14   ar
    21    14    15    1
    22     3     4   ar
    23     4     5    2
    24     4     6   ar
    25     6    28    1
    26    29    28    1
    27    29    36    1
    28    36    38    1
    29    38    39    1
    30    39    40    1
    31    40    41    1
    32    41    42   ar
    33    41    43   ar
    34    29    30    1
    35    30    31   ar
    36    31    32   ar
    37    32    33   ar
    38    33    34   ar
    39    34    35   ar
    40     6     7   ar
    41     7     8    2
    42    23    17   ar
    43     7     1   ar
    44    14     9   ar
    45    35    30   ar
    46    36    37    1
@<TRIPOS>MOLECULE
*****
 43 46 0 0 0
SMALL
GASTEIGER

@<TRIPOS>ATOM
      1 N          63.2471   88.3618   12.8394 N.ar    1  UNL1       -0.2754
      2 C          62.6260   88.0224   11.5168 C.ar    1  UNL1        0.0848
      3 C          62.5991   86.5991   11.0442 C.ar    1  UNL1        0.0744
      4 C          63.1933   85.5152   11.8940 C.ar    1  UNL1        0.2657
      5 O          63.1665   84.0919   11.4214 O.2     1  UNL1       -0.2668
      6 N          63.8144   85.8547   13.2165 N.ar    1  UNL1       -0.2470
      7 C          63.8412   87.2780   13.6892 C.ar    1  UNL1        0.3341
      8 O          64.4623   87.6175   15.0118 O.2     1  UNL1       -0.2462
      9 C          61.9781   86.2596    9.7217 C.ar    1  UNL1        0.0166
     10 C          62.7614   85.4882    8.7012 C.ar    1  UNL1        0.0010
     11 C          62.1404   85.1486    7.3787 C.ar    1  UNL1        0.0001
     12 C          60.7360   85.5805    7.0766 C.ar    1  UNL1        0.0009
     13 C          59.9527   86.3520    8.0971 C.ar    1  UNL1        0.0114
     14 C          60.5737   86.6915    9.4196 C.ar    1  UNL1        0.0578
     15 CL         59.7904   87.4628   10.4400 Cl      1  UNL1       -0.0822
     16 C          63.2739   89.7852   13.3121 C.3     1  UNL1        0.1408
     17 C          63.7739   91.3777   11.3211 C.ar    1  UNL1        0.1057
     18 C          64.6704   92.3745   10.6484 C.ar    1  UNL1        0.0182
     19 C          65.9635   92.7757   11.2940 C.ar    1  UNL1        0.0036
     20 C          66.3601   92.1801   12.6123 C.ar    1  UNL1        0.0295
     21 C          65.4636   91.1833   13.2850 C.ar    1  UNL1        0.1392
     22 F          65.8602   90.5876   14.6033 F       1  UNL1       -0.2044
     23 C          64.1705   90.7820   12.6394 C.ar    1  UNL1        0.0451
     24 C          61.1877   90.5751   10.0298 C.3     1  UNL1        0.1816
     25 S          62.4807   90.9764   10.6754 S.O2    1  UNL1        0.0103
     26 O          61.7497   91.2835   11.9487 O.2     1  UNL1       -0.1686
     27 O          63.2118   90.6693    9.4022 O.2     1  UNL1       -0.1686
     28 C          64.4086   84.7708   14.0664 C.3     1  UNL1        0.1337
     29 C          63.5233   83.9332   14.9408 C.3     1  UNL1        0.1000
     30 C          63.0121   82.6130   14.4451 C.ar    1  UNL1       -0.0061
     31 C          63.9518   81.6408   13.7956 C.ar    1  UNL1       -0.0029
     32 C          63.4405   80.3206   13.2999 C.ar    1  UNL1       -0.0003
     33 C          61.9896   79.9727   13.4535 C.ar    1  UNL1       -0.0000
     34 C          61.0499   80.9449   14.1030 C.ar    1  UNL1       -0.0003
     35 C          61.5611   82.2650   14.5987 C.ar    1  UNL1       -0.0029
     36 N          63.1493   84.4156   16.3110 N.3     1  UNL1       -0.2935
     37 H          64.0111   84.7274   16.7588 H       1  UNL1        0.1236
     38 C          62.1530   85.5257   16.4692 C.3     1  UNL1        0.0692
     39 C          62.2824   86.4928   17.6085 C.3     1  UNL1        0.0230
     40 C          63.1266   87.7233   17.4556 C.3     1  UNL1        0.0431
     41 C          62.5494   88.9551   16.8236 C.2     1  UNL1        0.0504
     42 O          63.3393   90.2303   16.8075 O.co2   1  UNL1       -0.5492
     43 O          61.1823   88.9119   16.2078 O.co2   1  UNL1       -0.5492
@<TRIPOS>UNITY_ATOM_ATTR
42 1
charge -1
@<TRIPOS>BOND
     1    24    25    1
     2    25    26    2
     3    25    27    2
     4    25    17    1
     5    17    18   ar
     6    18    19   ar
     7    19    20   ar
     8    20    21   ar
     9    21    22    1
    10    21    23   ar
    11    23    16    1
    12    16     1    1
    13     1     2   ar
    14     2     3   ar
    15     3     9    1
    16     9    10   ar
    17    10    11   ar
    18    11    12   ar
    19    12    13   ar
    20    13    14   ar
    21    14    15    1
    22     3     4   ar
    23     4     5    2
    24     4     6   ar
    25     6    28    1
    26    29    28    1
    27    29    36    1
    28    36    38    1
    29    38    39    1
    30    39    40    1
    31    40    41    1
    32    41    42   ar
    33    41    43   ar
    34    29    30    1
    35    30    31   ar
    36    31    32   ar
    37    32    33   ar
    38    33    34   ar
    39    34    35   ar
    40     6     7   ar
    41     7     8    2
    42    23    17   ar
    43     7     1   ar
    44    14     9   ar
    45    35    30   ar
    46    36    37    1
