@<TRIPOS>MOLECULE
*****
 31 33 0 0 0
SMALL
GASTEIGER

@<TRIPOS>ATOM
      1 C          63.0757   89.7608   12.2864 C.2     1  UNL1        0.2657
      2 O          62.4807   89.2958   13.5824 O.2     1  UNL1       -0.2684
      3 N          62.7406   89.0491   11.0092 N.am    1  UNL1       -0.2971
      4 H          63.1312   89.3543   10.1585 H       1  UNL1        0.1500
      5 C          65.4884   92.7195   12.9863 C.ar    1  UNL1        0.2278
      6 C          64.6356   91.5828   13.4662 C.ar    1  UNL1        0.0832
      7 C          64.0058   90.9375   12.2675 C.ar    1  UNL1        0.1591
      8 N          64.4694   91.6754   11.0467 N.ar    1  UNL1       -0.1578
      9 N          65.3857   92.7768   11.4908 N.ar    1  UNL1       -0.1958
     10 C          66.0778   93.7624   10.5966 C.ar    1  UNL1        0.1132
     11 C          65.6121   95.1875   10.5488 C.ar    1  UNL1        0.0215
     12 C          66.3041   96.1731    9.6546 C.ar    1  UNL1        0.0017
     13 C          67.4620   95.7336    8.8082 C.ar    1  UNL1        0.0024
     14 C          67.9277   94.3085    8.8561 C.ar    1  UNL1        0.0312
     15 C          67.2356   93.3229    9.7503 C.ar    1  UNL1        0.1578
     16 F          67.7014   91.8979    9.7981 F       1  UNL1       -0.2026
     17 O          66.3013   93.6378   13.8500 O.3     1  UNL1       -0.4602
     18 C          67.2773   92.7627   16.0931 C.3     1  UNL1        0.0512
     19 C          67.4549   93.0971   14.6417 C.3     1  UNL1        0.2072
     20 C          61.8106   87.8725   11.0280 C.3     1  UNL1        0.0996
     21 C          62.3620   86.4823   11.1450 C.ar    1  UNL1       -0.0081
     22 C          62.7455   85.9383   12.4891 C.ar    1  UNL1       -0.0030
     23 C          63.2969   84.5482   12.6060 C.ar    1  UNL1       -0.0003
     24 C          63.4647   83.7022   11.3788 C.ar    1  UNL1       -0.0003
     25 C          63.0811   84.2463   10.0346 C.ar    1  UNL1       -0.0045
     26 C          62.5298   85.6364    9.9177 C.ar    1  UNL1       -0.0243
     27 C          62.1462   86.1805    8.5735 C.3     1  UNL1        0.0308
     28 C          60.3291   88.0858   10.9299 C.3     1  UNL1        0.0658
     29 C          59.6751   89.1808   11.7196 C.2     1  UNL1        0.0523
     30 O          59.7952   90.6060   11.2676 O.co2   1  UNL1       -0.5491
     31 O          58.9011   88.8505   12.9613 O.co2   1  UNL1       -0.5491
@<TRIPOS>UNITY_ATOM_ATTR
30 1
charge -1
@<TRIPOS>BOND
     1    18    19    1
     2    19    17    1
     3    17     5    1
     4     5     6   ar
     5     6     7   ar
     6     7     1    1
     7     1     2    2
     8     1     3   am
     9     3    20    1
    10    20    28    1
    11    28    29    1
    12    29    30   ar
    13    29    31   ar
    14    20    21    1
    15    21    22   ar
    16    22    23   ar
    17    23    24   ar
    18    24    25   ar
    19    25    26   ar
    20    26    27    1
    21     7     8   ar
    22     8     9   ar
    23     9    10    1
    24    10    11   ar
    25    11    12   ar
    26    12    13   ar
    27    13    14   ar
    28    14    15   ar
    29    15    16    1
    30     9     5   ar
    31    15    10   ar
    32    26    21   ar
    33     3     4    1
@<TRIPOS>MOLECULE
*****
 31 33 0 0 0
SMALL
GASTEIGER

@<TRIPOS>ATOM
      1 C          62.6204   89.3996   11.8222 C.2     1  UNL1        0.2657
      2 O          61.2212   89.5314   12.3464 O.2     1  UNL1       -0.2684
      3 N          63.0573   88.1251   11.1627 N.am    1  UNL1       -0.2971
      4 H          63.9756   88.0386   10.8186 H       1  UNL1        0.1500
      5 C          65.0576   92.2174   12.9109 C.ar    1  UNL1        0.2278
      6 C          64.1387   91.0792   13.2429 C.ar    1  UNL1        0.0832
      7 C          63.5827   90.5423   11.9574 C.ar    1  UNL1        0.1591
      8 N          64.1579   91.3486   10.8309 N.ar    1  UNL1       -0.1578
      9 N          65.0694   92.3839   11.4202 N.ar    1  UNL1       -0.1958
     10 C          65.8549   93.4061   10.6534 C.ar    1  UNL1        0.1132
     11 C          65.3695   94.8235   10.5785 C.ar    1  UNL1        0.0215
     12 C          66.1550   95.8457    9.8118 C.ar    1  UNL1        0.0017
     13 C          67.4259   95.4507    9.1199 C.ar    1  UNL1        0.0024
     14 C          67.9113   94.0333    9.1947 C.ar    1  UNL1        0.0312
     15 C          67.1258   93.0111    9.9615 C.ar    1  UNL1        0.1578
     16 F          67.6112   91.5937   10.0363 F       1  UNL1       -0.2026
     17 O          65.8291   93.0439   13.8965 O.3     1  UNL1       -0.4602
     18 C          68.1082   91.8609   13.5012 C.3     1  UNL1        0.0512
     19 C          67.1452   92.5511   14.4210 C.3     1  UNL1        0.2072
     20 C          62.0950   86.9825   11.0274 C.3     1  UNL1        0.0996
     21 C          61.2245   86.8751    9.8105 C.ar    1  UNL1       -0.0081
     22 C          59.9282   87.6271    9.7469 C.ar    1  UNL1       -0.0030
     23 C          59.0578   87.5197    8.5301 C.ar    1  UNL1       -0.0003
     24 C          59.4836   86.6601    7.3769 C.ar    1  UNL1       -0.0003
     25 C          60.7798   85.9081    7.4405 C.ar    1  UNL1       -0.0045
     26 C          61.6503   86.0155    8.6573 C.ar    1  UNL1       -0.0243
     27 C          62.9466   85.2634    8.7210 C.3     1  UNL1        0.0308
     28 C          62.0031   85.9473   12.1090 C.3     1  UNL1        0.0658
     29 C          63.2232   85.5790   12.9002 C.2     1  UNL1        0.0523
     30 O          63.8547   84.2304   12.7205 O.co2   1  UNL1       -0.5491
     31 O          63.8116   86.5593   13.8712 O.co2   1  UNL1       -0.5491
@<TRIPOS>UNITY_ATOM_ATTR
30 1
charge -1
@<TRIPOS>BOND
     1    18    19    1
     2    19    17    1
     3    17     5    1
     4     5     6   ar
     5     6     7   ar
     6     7     1    1
     7     1     2    2
     8     1     3   am
     9     3    20    1
    10    20    28    1
    11    28    29    1
    12    29    30   ar
    13    29    31   ar
    14    20    21    1
    15    21    22   ar
    16    22    23   ar
    17    23    24   ar
    18    24    25   ar
    19    25    26   ar
    20    26    27    1
    21     7     8   ar
    22     8     9   ar
    23     9    10    1
    24    10    11   ar
    25    11    12   ar
    26    12    13   ar
    27    13    14   ar
    28    14    15   ar
    29    15    16    1
    30     9     5   ar
    31    15    10   ar
    32    26    21   ar
    33     3     4    1
@<TRIPOS>MOLECULE
*****
 31 33 0 0 0
SMALL
GASTEIGER

@<TRIPOS>ATOM
      1 C          64.2247   91.2479   12.2024 C.2     1  UNL1        0.2657
      2 O          63.9911   91.8539   13.5545 O.2     1  UNL1       -0.2684
      3 N          65.2367   91.8520   11.2744 N.am    1  UNL1       -0.2971
      4 H          65.3900   91.4543   10.3869 H       1  UNL1        0.1500
      5 C          62.4615   87.8198   11.7504 C.ar    1  UNL1        0.2278
      6 C          63.3334   88.7506   12.5399 C.ar    1  UNL1        0.0832
      7 C          63.4463   90.0379   11.7782 C.ar    1  UNL1        0.1591
      8 N          62.6442   89.9027   10.5179 N.ar    1  UNL1       -0.1578
      9 N          62.0355   88.5318   10.5006 N.ar    1  UNL1       -0.1958
     10 C          61.1555   87.9714    9.4230 C.ar    1  UNL1        0.1132
     11 C          61.3883   86.5803    8.9124 C.ar    1  UNL1        0.0215
     12 C          60.5082   86.0198    7.8347 C.ar    1  UNL1        0.0017
     13 C          59.3954   86.8505    7.2676 C.ar    1  UNL1        0.0024
     14 C          59.1626   88.2416    7.7782 C.ar    1  UNL1        0.0312
     15 C          60.0427   88.8020    8.8559 C.ar    1  UNL1        0.1578
     16 F          59.8099   90.1931    9.3665 F       1  UNL1       -0.2026
     17 O          62.0821   86.4224   12.1418 O.3     1  UNL1       -0.4602
     18 C          62.8922   84.0873   11.3411 C.3     1  UNL1        0.0512
     19 C          63.1166   85.3362   12.1408 C.3     1  UNL1        0.2072
     20 C          66.0150   93.0620   11.6985 C.3     1  UNL1        0.0996
     21 C          66.3161   94.1459   10.7062 C.ar    1  UNL1       -0.0081
     22 C          65.5811   95.4516   10.7757 C.ar    1  UNL1       -0.0030
     23 C          65.8822   96.5354    9.7834 C.ar    1  UNL1       -0.0003
     24 C          66.9183   96.3136    8.7217 C.ar    1  UNL1       -0.0003
     25 C          67.6534   95.0079    8.6523 C.ar    1  UNL1       -0.0045
     26 C          67.3523   93.9241    9.6446 C.ar    1  UNL1       -0.0243
     27 C          68.0873   92.6183    9.5752 C.3     1  UNL1        0.0308
     28 C          66.4923   93.1882   13.1150 C.3     1  UNL1        0.0658
     29 C          67.4722   92.1958   13.6674 C.2     1  UNL1        0.0523
     30 O          68.7022   91.8414   12.8856 O.co2   1  UNL1       -0.5491
     31 O          67.2219   91.5579   15.0018 O.co2   1  UNL1       -0.5491
@<TRIPOS>UNITY_ATOM_ATTR
30 1
charge -1
@<TRIPOS>BOND
     1    18    19    1
     2    19    17    1
     3    17     5    1
     4     5     6   ar
     5     6     7   ar
     6     7     1    1
     7     1     2    2
     8     1     3   am
     9     3    20    1
    10    20    28    1
    11    28    29    1
    12    29    30   ar
    13    29    31   ar
    14    20    21    1
    15    21    22   ar
    16    22    23   ar
    17    23    24   ar
    18    24    25   ar
    19    25    26   ar
    20    26    27    1
    21     7     8   ar
    22     8     9   ar
    23     9    10    1
    24    10    11   ar
    25    11    12   ar
    26    12    13   ar
    27    13    14   ar
    28    14    15   ar
    29    15    16    1
    30     9     5   ar
    31    15    10   ar
    32    26    21   ar
    33     3     4    1
@<TRIPOS>MOLECULE
*****
 31 33 0 0 0
SMALL
GASTEIGER

@<TRIPOS>ATOM
      1 C          62.7555   89.2272   11.6229 C.2     1  UNL1        0.2657
      2 O          62.6002   88.0567   12.5479 O.2     1  UNL1       -0.2684
      3 N          61.9191   89.3178   10.3810 N.am    1  UNL1       -0.2971
      4 H          62.0210   90.0861    9.7738 H       1  UNL1        0.1500
      5 C          65.0717   92.3364   11.8051 C.ar    1  UNL1        0.2278
      6 C          64.0041   91.5363   11.1194 C.ar    1  UNL1        0.0832
      7 C          63.7471   90.3071   11.9397 C.ar    1  UNL1        0.1591
      8 N          64.6559   90.3474   13.1324 N.ar    1  UNL1       -0.1578
      9 N          65.4745   91.6016   13.0493 N.ar    1  UNL1       -0.1958
     10 C          66.5135   92.0434   14.0368 C.ar    1  UNL1        0.1132
     11 C          66.0987   92.5419   15.3894 C.ar    1  UNL1        0.0215
     12 C          67.1377   92.9837   16.3770 C.ar    1  UNL1        0.0017
     13 C          68.5915   92.9269   16.0120 C.ar    1  UNL1        0.0024
     14 C          69.0063   92.4284   14.6594 C.ar    1  UNL1        0.0312
     15 C          67.9673   91.9866   13.6718 C.ar    1  UNL1        0.1578
     16 F          68.3821   91.4881   12.3193 F       1  UNL1       -0.2026
     17 O          65.6372   93.6420   11.3301 O.3     1  UNL1       -0.4602
     18 C          67.5114   92.6866    9.8055 C.3     1  UNL1        0.0512
     19 C          66.4323   93.6970   10.0594 C.3     1  UNL1        0.2072
     20 C          60.9275   88.2379   10.0641 C.3     1  UNL1        0.0996
     21 C          61.2977   87.1333    9.1192 C.ar    1  UNL1       -0.0081
     22 C          62.6108   86.4245    9.2717 C.ar    1  UNL1       -0.0030
     23 C          62.9810   85.3200    8.3268 C.ar    1  UNL1       -0.0003
     24 C          62.0382   84.9243    7.2293 C.ar    1  UNL1       -0.0003
     25 C          60.7251   85.6331    7.0768 C.ar    1  UNL1       -0.0045
     26 C          60.3549   86.7376    8.0217 C.ar    1  UNL1       -0.0243
     27 C          59.0417   87.4466    7.8692 C.3     1  UNL1        0.0308
     28 C          59.5655   88.2625   10.6922 C.3     1  UNL1        0.0658
     29 C          59.2526   89.2625   11.7656 C.2     1  UNL1        0.0523
     30 O          58.9426   88.7968   13.1573 O.co2   1  UNL1       -0.5491
     31 O          59.2495   90.7283   11.4472 O.co2   1  UNL1       -0.5491
@<TRIPOS>UNITY_ATOM_ATTR
30 1
charge -1
@<TRIPOS>BOND
     1    18    19    1
     2    19    17    1
     3    17     5    1
     4     5     6   ar
     5     6     7   ar
     6     7     1    1
     7     1     2    2
     8     1     3   am
     9     3    20    1
    10    20    28    1
    11    28    29    1
    12    29    30   ar
    13    29    31   ar
    14    20    21    1
    15    21    22   ar
    16    22    23   ar
    17    23    24   ar
    18    24    25   ar
    19    25    26   ar
    20    26    27    1
    21     7     8   ar
    22     8     9   ar
    23     9    10    1
    24    10    11   ar
    25    11    12   ar
    26    12    13   ar
    27    13    14   ar
    28    14    15   ar
    29    15    16    1
    30     9     5   ar
    31    15    10   ar
    32    26    21   ar
    33     3     4    1
@<TRIPOS>MOLECULE
*****
 31 33 0 0 0
SMALL
GASTEIGER

@<TRIPOS>ATOM
      1 C          62.6579   89.2221   12.0323 C.2     1  UNL1        0.2657
      2 O          61.2699   89.3604   12.5838 O.2     1  UNL1       -0.2684
      3 N          63.0335   88.0028   11.2433 N.am    1  UNL1       -0.2971
      4 H          63.9445   87.9120   10.8814 H       1  UNL1        0.1500
      5 C          64.9952   92.3208   12.0166 C.ar    1  UNL1        0.2278
      6 C          63.8881   91.5117   11.4086 C.ar    1  UNL1        0.0832
      7 C          63.6704   90.3030   12.2697 C.ar    1  UNL1        0.1591
      8 N          64.6431   90.3650   13.4099 N.ar    1  UNL1       -0.1578
      9 N          65.4618   91.6121   13.2535 N.ar    1  UNL1       -0.1958
     10 C          66.5552   92.0700   14.1726 C.ar    1  UNL1        0.1132
     11 C          66.2166   92.6096   15.5306 C.ar    1  UNL1        0.0215
     12 C          67.3100   93.0675   16.4497 C.ar    1  UNL1        0.0017
     13 C          68.7420   92.9858   16.0108 C.ar    1  UNL1        0.0024
     14 C          69.0806   92.4462   14.6528 C.ar    1  UNL1        0.0312
     15 C          67.9873   91.9883   13.7337 C.ar    1  UNL1        0.1578
     16 F          68.3259   91.4487   12.3757 F       1  UNL1       -0.2026
     17 O          65.5401   93.6119   11.4816 O.3     1  UNL1       -0.4602
     18 C          67.4422   92.9326    9.8475 C.3     1  UNL1        0.0512
     19 C          66.1563   93.6568   10.1147 C.3     1  UNL1        0.2072
     20 C          62.0210   86.9219   11.0059 C.3     1  UNL1        0.0996
     21 C          62.4337   85.4810   11.0674 C.ar    1  UNL1       -0.0081
     22 C          62.3419   84.7292   12.3620 C.ar    1  UNL1       -0.0030
     23 C          62.7546   83.2884   12.4234 C.ar    1  UNL1       -0.0003
     24 C          63.2590   82.5995   11.1901 C.ar    1  UNL1       -0.0003
     25 C          63.3507   83.3513    9.8955 C.ar    1  UNL1       -0.0045
     26 C          62.9380   84.7921    9.8341 C.ar    1  UNL1       -0.0243
     27 C          63.0298   85.5441    8.5394 C.3     1  UNL1        0.0308
     28 C          60.5958   87.2817   10.7071 C.3     1  UNL1        0.0658
     29 C          60.2457   87.9412    9.4060 C.2     1  UNL1        0.0523
     30 O          59.3228   87.2561    8.4423 O.co2   1  UNL1       -0.5491
     31 O          60.8187   89.2858    9.0688 O.co2   1  UNL1       -0.5491
@<TRIPOS>UNITY_ATOM_ATTR
30 1
charge -1
@<TRIPOS>BOND
     1    18    19    1
     2    19    17    1
     3    17     5    1
     4     5     6   ar
     5     6     7   ar
     6     7     1    1
     7     1     2    2
     8     1     3   am
     9     3    20    1
    10    20    28    1
    11    28    29    1
    12    29    30   ar
    13    29    31   ar
    14    20    21    1
    15    21    22   ar
    16    22    23   ar
    17    23    24   ar
    18    24    25   ar
    19    25    26   ar
    20    26    27    1
    21     7     8   ar
    22     8     9   ar
    23     9    10    1
    24    10    11   ar
    25    11    12   ar
    26    12    13   ar
    27    13    14   ar
    28    14    15   ar
    29    15    16    1
    30     9     5   ar
    31    15    10   ar
    32    26    21   ar
    33     3     4    1
@<TRIPOS>MOLECULE
*****
 31 33 0 0 0
SMALL
GASTEIGER

@<TRIPOS>ATOM
      1 C          62.5483   89.0179   11.9107 C.2     1  UNL1        0.2657
      2 O          61.0942   89.2177   12.2200 O.2     1  UNL1       -0.2684
      3 N          63.0218   87.7129   11.3426 N.am    1  UNL1       -0.2971
      4 H          63.9762   87.5817   11.1395 H       1  UNL1        0.1500
      5 C          64.8010   92.1784   11.9505 C.ar    1  UNL1        0.2278
      6 C          63.7222   91.3464   11.3231 C.ar    1  UNL1        0.0832
      7 C          63.5289   90.1231   12.1694 C.ar    1  UNL1        0.1591
      8 N          64.4883   90.1992   13.3200 N.ar    1  UNL1       -0.1578
      9 N          65.2746   91.4694   13.1847 N.ar    1  UNL1       -0.1958
     10 C          66.3462   91.9468   14.1194 C.ar    1  UNL1        0.1132
     11 C          65.9794   92.4678   15.4774 C.ar    1  UNL1        0.0215
     12 C          67.0510   92.9452   16.4121 C.ar    1  UNL1        0.0017
     13 C          68.4894   92.9016   15.9889 C.ar    1  UNL1        0.0024
     14 C          68.8562   92.3806   14.6309 C.ar    1  UNL1        0.0312
     15 C          67.7846   91.9032   13.6962 C.ar    1  UNL1        0.1578
     16 F          68.1513   91.3821   12.3382 F       1  UNL1       -0.2026
     17 O          65.3160   93.4893   11.4344 O.3     1  UNL1       -0.4602
     18 C          67.0466   93.4297    9.4976 C.3     1  UNL1        0.0512
     19 C          66.7326   93.6020   10.9541 C.3     1  UNL1        0.2072
     20 C          62.0413   86.6077   11.0838 C.3     1  UNL1        0.0996
     21 C          61.2418   86.5962    9.8146 C.ar    1  UNL1       -0.0081
     22 C          59.9294   87.3194    9.7484 C.ar    1  UNL1       -0.0030
     23 C          59.1300   87.3079    8.4792 C.ar    1  UNL1       -0.0003
     24 C          59.6430   86.5732    7.2763 C.ar    1  UNL1       -0.0003
     25 C          60.9555   85.8500    7.3426 C.ar    1  UNL1       -0.0045
     26 C          61.7548   85.8615    8.6117 C.ar    1  UNL1       -0.0243
     27 C          63.0674   85.1382    8.6780 C.3     1  UNL1        0.0308
     28 C          61.8601   85.5139   12.0942 C.3     1  UNL1        0.0658
     29 C          63.0504   84.9552   12.8163 C.2     1  UNL1        0.0523
     30 O          63.3363   85.3748   14.2277 O.co2   1  UNL1       -0.5491
     31 O          63.9547   83.9771   12.1268 O.co2   1  UNL1       -0.5491
@<TRIPOS>UNITY_ATOM_ATTR
30 1
charge -1
@<TRIPOS>BOND
     1    18    19    1
     2    19    17    1
     3    17     5    1
     4     5     6   ar
     5     6     7   ar
     6     7     1    1
     7     1     2    2
     8     1     3   am
     9     3    20    1
    10    20    28    1
    11    28    29    1
    12    29    30   ar
    13    29    31   ar
    14    20    21    1
    15    21    22   ar
    16    22    23   ar
    17    23    24   ar
    18    24    25   ar
    19    25    26   ar
    20    26    27    1
    21     7     8   ar
    22     8     9   ar
    23     9    10    1
    24    10    11   ar
    25    11    12   ar
    26    12    13   ar
    27    13    14   ar
    28    14    15   ar
    29    15    16    1
    30     9     5   ar
    31    15    10   ar
    32    26    21   ar
    33     3     4    1
@<TRIPOS>MOLECULE
*****
 31 33 0 0 0
SMALL
GASTEIGER

@<TRIPOS>ATOM
      1 C          64.1382   90.9859   12.6441 C.2     1  UNL1        0.2657
      2 O          63.7455   91.5341   13.9839 O.2     1  UNL1       -0.2684
      3 N          65.2434   91.6334   11.8634 N.am    1  UNL1       -0.2971
      4 H          65.5012   91.2736   10.9841 H       1  UNL1        0.1500
      5 C          62.5830   87.5329   11.7937 C.ar    1  UNL1        0.2278
      6 C          63.4172   88.4122   12.6774 C.ar    1  UNL1        0.0832
      7 C          63.4259   89.7902   12.0849 C.ar    1  UNL1        0.1591
      8 N          62.5971   89.7625   10.8349 N.ar    1  UNL1       -0.1578
      9 N          62.0761   88.3674   10.6550 N.ar    1  UNL1       -0.1958
     10 C          61.2019   87.8905    9.5332 C.ar    1  UNL1        0.1132
     11 C          61.4064   86.5228    8.9523 C.ar    1  UNL1        0.0215
     12 C          60.5322   86.0459    7.8306 C.ar    1  UNL1        0.0017
     13 C          59.4534   86.9368    7.2898 C.ar    1  UNL1        0.0024
     14 C          59.2489   88.3046    7.8707 C.ar    1  UNL1        0.0312
     15 C          60.1231   88.7815    8.9924 C.ar    1  UNL1        0.1578
     16 F          59.9186   90.1492    9.5733 F       1  UNL1       -0.2026
     17 O          62.3046   86.0750   12.0107 O.3     1  UNL1       -0.4602
     18 C          63.7527   83.9681   12.4732 C.3     1  UNL1        0.0512
     19 C          63.1756   85.2741   12.9326 C.3     1  UNL1        0.2072
     20 C          65.9558   92.8291   12.4226 C.3     1  UNL1        0.0996
     21 C          66.8030   92.6900   13.6527 C.ar    1  UNL1       -0.0081
     22 C          66.2818   93.1579   14.9792 C.ar    1  UNL1       -0.0030
     23 C          67.1290   93.0187   16.2092 C.ar    1  UNL1       -0.0003
     24 C          68.4973   92.4117   16.1127 C.ar    1  UNL1       -0.0003
     25 C          69.0184   91.9438   14.7863 C.ar    1  UNL1       -0.0045
     26 C          68.1713   92.0830   13.5563 C.ar    1  UNL1       -0.0243
     27 C          68.6924   91.6151   12.2298 C.3     1  UNL1        0.0308
     28 C          65.8211   94.1640   11.7518 C.3     1  UNL1        0.0658
     29 C          66.3506   94.3619   10.3624 C.2     1  UNL1        0.0523
     30 O          66.2696   95.7122    9.7142 O.co2   1  UNL1       -0.5491
     31 O          66.9611   93.2096    9.6212 O.co2   1  UNL1       -0.5491
@<TRIPOS>UNITY_ATOM_ATTR
30 1
charge -1
@<TRIPOS>BOND
     1    18    19    1
     2    19    17    1
     3    17     5    1
     4     5     6   ar
     5     6     7   ar
     6     7     1    1
     7     1     2    2
     8     1     3   am
     9     3    20    1
    10    20    28    1
    11    28    29    1
    12    29    30   ar
    13    29    31   ar
    14    20    21    1
    15    21    22   ar
    16    22    23   ar
    17    23    24   ar
    18    24    25   ar
    19    25    26   ar
    20    26    27    1
    21     7     8   ar
    22     8     9   ar
    23     9    10    1
    24    10    11   ar
    25    11    12   ar
    26    12    13   ar
    27    13    14   ar
    28    14    15   ar
    29    15    16    1
    30     9     5   ar
    31    15    10   ar
    32    26    21   ar
    33     3     4    1
@<TRIPOS>MOLECULE
*****
 31 33 0 0 0
SMALL
GASTEIGER

@<TRIPOS>ATOM
      1 C          64.1287   89.5766   14.0481 C.2     1  UNL1        0.2657
      2 O          62.6289   89.5996   14.0366 O.2     1  UNL1       -0.2684
      3 N          64.8570   88.2946   14.3242 N.am    1  UNL1       -0.2971
      4 H          65.8413   88.2794   14.3318 H       1  UNL1        0.1500
      5 C          66.2671   92.8152   14.1030 C.ar    1  UNL1        0.2278
      6 C          65.6444   91.6444   14.8040 C.ar    1  UNL1        0.0832
      7 C          64.9002   90.8354   13.7834 C.ar    1  UNL1        0.1591
      8 N          65.0629   91.5063   12.4517 N.ar    1  UNL1       -0.1578
      9 N          65.9077   92.7299   12.6492 N.ar    1  UNL1       -0.1958
     10 C          66.3207   93.6981   11.5806 C.ar    1  UNL1        0.1132
     11 C          66.0427   95.1627   11.7474 C.ar    1  UNL1        0.0215
     12 C          66.4556   96.1309   10.6788 C.ar    1  UNL1        0.0017
     13 C          67.1465   95.6346    9.4433 C.ar    1  UNL1        0.0024
     14 C          67.4245   94.1700    9.2765 C.ar    1  UNL1        0.0312
     15 C          67.0115   93.2018   10.3451 C.ar    1  UNL1        0.1578
     16 F          67.2895   91.7372   10.1783 F       1  UNL1       -0.2026
     17 O          67.1026   93.8839   14.7435 O.3     1  UNL1       -0.4602
     18 C          68.9358   92.4787   15.9328 C.3     1  UNL1        0.0512
     19 C          67.9092   93.5716   15.9689 C.3     1  UNL1        0.2072
     20 C          64.0855   87.0357   14.5889 C.3     1  UNL1        0.0996
     21 C          63.6050   86.1955   13.4429 C.ar    1  UNL1       -0.0081
     22 C          62.7908   86.8169   12.3471 C.ar    1  UNL1       -0.0030
     23 C          62.3103   85.9767   11.2011 C.ar    1  UNL1       -0.0003
     24 C          62.6441   84.5152   11.1510 C.ar    1  UNL1       -0.0003
     25 C          63.4584   83.8938   12.2468 C.ar    1  UNL1       -0.0045
     26 C          63.9388   84.7340   13.3928 C.ar    1  UNL1       -0.0243
     27 C          64.7531   84.1127   14.4887 C.3     1  UNL1        0.0308
     28 C          63.7944   86.6170   15.9996 C.3     1  UNL1        0.0658
     29 C          62.8477   87.4213   16.8404 C.2     1  UNL1        0.0523
     30 O          61.5506   86.8195   17.2935 O.co2   1  UNL1       -0.5491
     31 O          63.1982   88.8272   17.2283 O.co2   1  UNL1       -0.5491
@<TRIPOS>UNITY_ATOM_ATTR
30 1
charge -1
@<TRIPOS>BOND
     1    18    19    1
     2    19    17    1
     3    17     5    1
     4     5     6   ar
     5     6     7   ar
     6     7     1    1
     7     1     2    2
     8     1     3   am
     9     3    20    1
    10    20    28    1
    11    28    29    1
    12    29    30   ar
    13    29    31   ar
    14    20    21    1
    15    21    22   ar
    16    22    23   ar
    17    23    24   ar
    18    24    25   ar
    19    25    26   ar
    20    26    27    1
    21     7     8   ar
    22     8     9   ar
    23     9    10    1
    24    10    11   ar
    25    11    12   ar
    26    12    13   ar
    27    13    14   ar
    28    14    15   ar
    29    15    16    1
    30     9     5   ar
    31    15    10   ar
    32    26    21   ar
    33     3     4    1
@<TRIPOS>MOLECULE
*****
 31 33 0 0 0
SMALL
GASTEIGER

@<TRIPOS>ATOM
      1 C          63.3488   90.1897   12.1676 C.2     1  UNL1        0.2657
      2 O          62.7097   89.7764   13.4602 O.2     1  UNL1       -0.2684
      3 N          62.9757   89.4959   10.8910 N.am    1  UNL1       -0.2971
      4 H          63.3951   89.7672   10.0426 H       1  UNL1        0.1500
      5 C          66.0923   92.8514   12.8412 C.ar    1  UNL1        0.2278
      6 C          65.2373   91.7066   13.2978 C.ar    1  UNL1        0.0832
      7 C          64.3608   91.2967   12.1516 C.ar    1  UNL1        0.1591
      8 N          64.6741   92.1881   10.9866 N.ar    1  UNL1       -0.1578
      9 N          65.7442   93.1490   11.4127 N.ar    1  UNL1       -0.1958
     10 C          66.3583   94.2195   10.5602 C.ar    1  UNL1        0.1132
     11 C          66.9395   93.8712    9.2220 C.ar    1  UNL1        0.0215
     12 C          67.5537   94.9417    8.3694 C.ar    1  UNL1        0.0017
     13 C          67.5866   96.3605    8.8552 C.ar    1  UNL1        0.0024
     14 C          67.0054   96.7088   10.1934 C.ar    1  UNL1        0.0312
     15 C          66.3913   95.6383   11.0459 C.ar    1  UNL1        0.1578
     16 F          65.8100   95.9866   12.3842 F       1  UNL1       -0.2026
     17 O          67.1157   93.5720   13.6678 O.3     1  UNL1       -0.4602
     18 C          67.3245   92.7910   16.1369 C.3     1  UNL1        0.0512
     19 C          67.8665   92.8381   14.7391 C.3     1  UNL1        0.2072
     20 C          61.9637   88.3889   10.9071 C.3     1  UNL1        0.0996
     21 C          62.3346   87.0262   10.4015 C.ar    1  UNL1       -0.0081
     22 C          62.2621   86.7255    8.9337 C.ar    1  UNL1       -0.0030
     23 C          62.6330   85.3628    8.4282 C.ar    1  UNL1       -0.0003
     24 C          63.0764   84.3010    9.3904 C.ar    1  UNL1       -0.0003
     25 C          63.1488   84.6017   10.8581 C.ar    1  UNL1       -0.0045
     26 C          62.7780   85.9644   11.3636 C.ar    1  UNL1       -0.0243
     27 C          62.8504   86.2652   12.8314 C.3     1  UNL1        0.0308
     28 C          60.5807   88.6446   11.4287 C.3     1  UNL1        0.0658
     29 C          59.7643   89.7714   10.8685 C.2     1  UNL1        0.0523
     30 O          58.9340   90.6227   11.7828 O.co2   1  UNL1       -0.5491
     31 O          59.7782   90.0469    9.3941 O.co2   1  UNL1       -0.5491
@<TRIPOS>UNITY_ATOM_ATTR
30 1
charge -1
@<TRIPOS>BOND
     1    18    19    1
     2    19    17    1
     3    17     5    1
     4     5     6   ar
     5     6     7   ar
     6     7     1    1
     7     1     2    2
     8     1     3   am
     9     3    20    1
    10    20    28    1
    11    28    29    1
    12    29    30   ar
    13    29    31   ar
    14    20    21    1
    15    21    22   ar
    16    22    23   ar
    17    23    24   ar
    18    24    25   ar
    19    25    26   ar
    20    26    27    1
    21     7     8   ar
    22     8     9   ar
    23     9    10    1
    24    10    11   ar
    25    11    12   ar
    26    12    13   ar
    27    13    14   ar
    28    14    15   ar
    29    15    16    1
    30     9     5   ar
    31    15    10   ar
    32    26    21   ar
    33     3     4    1
