@<TRIPOS>MOLECULE
*****
 36 39 0 0 0
SMALL
GASTEIGER

@<TRIPOS>ATOM
      1 C          63.2548   84.5139   14.2566 C.ar    1  UNL1        0.1471
      2 N          63.1648   85.7860   13.4668 N.ar    1  UNL1       -0.2109
      3 C          63.9375   86.8424   14.1996 C.ar    1  UNL1        0.1686
      4 C          64.5051   86.2232   15.4425 C.ar    1  UNL1        0.1113
      5 N          64.0832   84.7842   15.4777 N.ar    1  UNL1       -0.3363
      6 H          64.3101   84.1316   16.1790 H       1  UNL1        0.1673
      7 N          64.1120   88.2676   13.7659 N.ar    1  UNL1       -0.2565
      8 C          64.9964   89.1883   14.5533 C.ar    1  UNL1        0.0857
      9 C          65.1709   90.6136   14.1195 C.ar    1  UNL1        0.0340
     10 C          64.4609   91.1182   12.8984 C.ar    1  UNL1        0.0569
     11 C          63.5764   90.1974   12.1109 C.ar    1  UNL1        0.0758
     12 C          63.4019   88.7722   12.5447 C.ar    1  UNL1        0.2672
     13 O          62.5175   87.8515   11.7573 O.2     1  UNL1       -0.2665
     14 N          64.6354   92.5434   12.4646 N.am    1  UNL1       -0.2790
     15 C          65.9573   93.0080   11.9293 C.2     1  UNL1        0.2678
     16 O          67.1048   92.0473   11.8277 O.2     1  UNL1       -0.2681
     17 H          63.8822   93.1739   12.5313 H       1  UNL1        0.1552
     18 C          66.1318   94.4334   11.4955 C.ar    1  UNL1        0.1419
     19 C          66.3374   94.9076   10.0874 C.ar    1  UNL1        0.0607
     20 S          66.4639   96.4019   10.1154 S.2     1  UNL1       -0.0638
     21 C          66.3365   96.8513   11.5408 C.ar    1  UNL1        0.1347
     22 N          66.1312   95.6346   12.3938 N.ar    1  UNL1       -0.2317
     23 C          62.1682   83.0254   15.3071 C.3     1  UNL1        0.0417
     24 C          62.6268   83.2021   13.8899 C.3     1  UNL1        0.1567
     25 O          61.9988   81.8902   13.5231 O.3     1  UNL1       -0.3756
     26 H          61.8835   81.3523   14.3221 H       1  UNL1        0.2112
     27 C          63.0854   83.3787   12.4726 C.ar    1  UNL1        0.0084
     28 C          64.1998   82.5315   11.9338 C.ar    1  UNL1       -0.0016
     29 C          64.6584   82.7082   10.5166 C.ar    1  UNL1       -0.0003
     30 C          64.0026   83.7322    9.6383 C.ar    1  UNL1        0.0038
     31 C          62.8883   84.5794   10.1771 C.ar    1  UNL1        0.0712
     32 C          62.4297   84.4027   11.5943 C.ar    1  UNL1        0.0022
     33 C          62.2326   85.6034    9.2988 C.3     1  UNL1        0.4186
     34 F          61.5769   86.6274    8.4204 F       1  UNL1       -0.1659
     35 F          63.4418   85.6164    8.4113 F       1  UNL1       -0.1659
     36 F          61.0234   85.5904   10.1863 F       1  UNL1       -0.1659
@<TRIPOS>BOND
     1    23    24    1
     2    24    25    1
     3    24    27    1
     4    27    28   ar
     5    28    29   ar
     6    29    30   ar
     7    30    31   ar
     8    31    33    1
     9    33    34    1
    10    33    35    1
    11    33    36    1
    12    31    32   ar
    13    24     1    1
    14     1     2   ar
    15     2     3   ar
    16     3     7    1
    17     7     8   ar
    18     8     9   ar
    19     9    10   ar
    20    10    14    1
    21    14    15   am
    22    15    16    2
    23    15    18    1
    24    18    19   ar
    25    19    20   ar
    26    20    21   ar
    27    21    22   ar
    28    10    11   ar
    29    11    12   ar
    30    12    13    2
    31     3     4   ar
    32     4     5   ar
    33    32    27   ar
    34     5     1   ar
    35    12     7   ar
    36    22    18   ar
    37    25    26    1
    38    14    17    1
    39     5     6    1
@<TRIPOS>MOLECULE
*****
 36 39 0 0 0
SMALL
GASTEIGER

@<TRIPOS>ATOM
      1 C          60.3722   87.9464    9.0198 C.ar    1  UNL1        0.1471
      2 N          61.7371   88.3840    9.4622 N.ar    1  UNL1       -0.2109
      3 C          61.5759   89.5929   10.3356 C.ar    1  UNL1        0.1686
      4 C          60.1114   89.9024   10.4330 C.ar    1  UNL1        0.1113
      5 N          59.3675   88.8849    9.6199 N.ar    1  UNL1       -0.3363
      6 H          58.3912   88.8407    9.5009 H       1  UNL1        0.1673
      7 N          62.6846   90.3579   10.9956 N.ar    1  UNL1       -0.2565
      8 C          63.5645   91.2575   10.1794 C.ar    1  UNL1        0.0857
      9 C          64.6731   92.0225   10.8394 C.ar    1  UNL1        0.0340
     10 C          64.9019   91.8879   12.3157 C.ar    1  UNL1        0.0569
     11 C          64.0219   90.9882   13.1320 C.ar    1  UNL1        0.0758
     12 C          62.9133   90.2232   12.4719 C.ar    1  UNL1        0.2672
     13 O          62.0334   89.3235   13.2882 O.2     1  UNL1       -0.2665
     14 N          66.0105   92.6529   12.9757 N.am    1  UNL1       -0.2790
     15 C          66.7963   92.0247   14.0883 C.2     1  UNL1        0.2678
     16 O          66.4734   90.6316   14.5409 O.2     1  UNL1       -0.2681
     17 H          66.2224   93.5673   12.6786 H       1  UNL1        0.1552
     18 C          67.9050   92.7898   14.7484 C.ar    1  UNL1        0.1419
     19 C          67.7441   93.8280   15.8189 C.ar    1  UNL1        0.0607
     20 S          69.1089   94.3308   16.1859 S.2     1  UNL1       -0.0638
     21 C          70.1132   93.6033   15.3421 C.ar    1  UNL1        0.1347
     22 N          69.3692   92.6509   14.4536 N.ar    1  UNL1       -0.2317
     23 C          58.9225   87.5344    7.5271 C.3     1  UNL1        0.0417
     24 C          60.0659   86.7760    8.1332 C.3     1  UNL1        0.1567
     25 O          59.7595   85.6055    7.2466 O.3     1  UNL1       -0.3756
     26 H          58.8410   85.6638    6.9400 H       1  UNL1        0.2112
     27 C          61.2093   86.0175    8.7394 C.ar    1  UNL1        0.0084
     28 C          62.2520   85.3998    7.8557 C.ar    1  UNL1       -0.0016
     29 C          63.3953   84.6414    8.4619 C.ar    1  UNL1       -0.0003
     30 C          63.4959   84.5007    9.9519 C.ar    1  UNL1        0.0038
     31 C          62.4532   85.1185   10.8357 C.ar    1  UNL1        0.0712
     32 C          61.3099   85.8769   10.2294 C.ar    1  UNL1        0.0022
     33 C          62.5539   84.9778   12.3256 C.3     1  UNL1        0.4186
     34 F          62.6545   84.8372   13.8156 F       1  UNL1       -0.1659
     35 F          62.8595   86.4417   12.4432 F       1  UNL1       -0.1659
     36 F          62.2482   83.5140   12.2081 F       1  UNL1       -0.1659
@<TRIPOS>BOND
     1    23    24    1
     2    24    25    1
     3    24    27    1
     4    27    28   ar
     5    28    29   ar
     6    29    30   ar
     7    30    31   ar
     8    31    33    1
     9    33    34    1
    10    33    35    1
    11    33    36    1
    12    31    32   ar
    13    24     1    1
    14     1     2   ar
    15     2     3   ar
    16     3     7    1
    17     7     8   ar
    18     8     9   ar
    19     9    10   ar
    20    10    14    1
    21    14    15   am
    22    15    16    2
    23    15    18    1
    24    18    19   ar
    25    19    20   ar
    26    20    21   ar
    27    21    22   ar
    28    10    11   ar
    29    11    12   ar
    30    12    13    2
    31     3     4   ar
    32     4     5   ar
    33    32    27   ar
    34     5     1   ar
    35    12     7   ar
    36    22    18   ar
    37    25    26    1
    38    14    17    1
    39     5     6    1
@<TRIPOS>MOLECULE
*****
 36 39 0 0 0
SMALL
GASTEIGER

@<TRIPOS>ATOM
      1 C          63.1849   84.5663   13.7329 C.ar    1  UNL1        0.1471
      2 N          62.3372   85.0567   12.5967 N.ar    1  UNL1       -0.2109
      3 C          62.6191   86.5175   12.4049 C.ar    1  UNL1        0.1686
      4 C          63.6410   86.9299   13.4227 C.ar    1  UNL1        0.1113
      5 N          63.9907   85.7241   14.2434 N.ar    1  UNL1       -0.3363
      6 H          64.6358   85.6972   14.9866 H       1  UNL1        0.1673
      7 N          61.9896   87.4093   11.3761 N.ar    1  UNL1       -0.2565
      8 C          60.9265   86.8701   10.4657 C.ar    1  UNL1        0.0857
      9 C          60.2970   87.7618    9.4369 C.ar    1  UNL1        0.0340
     10 C          60.7306   89.1928    9.3185 C.ar    1  UNL1        0.0569
     11 C          61.7938   89.7321   10.2289 C.ar    1  UNL1        0.0758
     12 C          62.4233   88.8403   11.2577 C.ar    1  UNL1        0.2672
     13 O          63.4865   89.3796   12.1682 O.2     1  UNL1       -0.2665
     14 N          60.1012   90.0846    8.2897 N.am    1  UNL1       -0.2790
     15 C          59.4536   89.4880    7.0753 C.2     1  UNL1        0.2678
     16 O          59.4355   87.9997    6.8898 O.2     1  UNL1       -0.2681
     17 H          60.1130   91.0615    8.4115 H       1  UNL1        0.1552
     18 C          58.8241   90.3798    6.0464 C.ar    1  UNL1        0.1419
     19 C          59.5554   91.2489    5.0668 C.ar    1  UNL1        0.0607
     20 S          58.5360   91.9653    4.2316 S.2     1  UNL1       -0.0638
     21 C          57.1746   91.5390    4.6951 C.ar    1  UNL1        0.1347
     22 N          57.3527   90.5591    5.8168 N.ar    1  UNL1       -0.2317
     23 C          62.9770   83.6844   15.6510 C.3     1  UNL1        0.0417
     24 C          63.2206   83.1644   14.2652 C.3     1  UNL1        0.1567
     25 O          63.2563   81.7625   14.7975 O.3     1  UNL1       -0.3756
     26 H          63.4496   81.7823   15.7479 H       1  UNL1        0.2112
     27 C          63.4642   82.6445   12.8794 C.ar    1  UNL1        0.0084
     28 C          64.2144   83.4809   11.8857 C.ar    1  UNL1       -0.0016
     29 C          64.4580   82.9609   10.5000 C.ar    1  UNL1       -0.0003
     30 C          63.9513   81.6046   10.1080 C.ar    1  UNL1        0.0038
     31 C          63.2011   80.7682   11.1017 C.ar    1  UNL1        0.0712
     32 C          62.9575   81.2881   12.4875 C.ar    1  UNL1        0.0022
     33 C          62.6944   79.4118   10.7098 C.3     1  UNL1        0.4186
     34 F          62.1878   78.0555   10.3178 F       1  UNL1       -0.1659
     35 F          62.3093   79.1440   12.1345 F       1  UNL1       -0.1659
     36 F          63.0796   79.6797    9.2850 F       1  UNL1       -0.1659
@<TRIPOS>BOND
     1    23    24    1
     2    24    25    1
     3    24    27    1
     4    27    28   ar
     5    28    29   ar
     6    29    30   ar
     7    30    31   ar
     8    31    33    1
     9    33    34    1
    10    33    35    1
    11    33    36    1
    12    31    32   ar
    13    24     1    1
    14     1     2   ar
    15     2     3   ar
    16     3     7    1
    17     7     8   ar
    18     8     9   ar
    19     9    10   ar
    20    10    14    1
    21    14    15   am
    22    15    16    2
    23    15    18    1
    24    18    19   ar
    25    19    20   ar
    26    20    21   ar
    27    21    22   ar
    28    10    11   ar
    29    11    12   ar
    30    12    13    2
    31     3     4   ar
    32     4     5   ar
    33    32    27   ar
    34     5     1   ar
    35    12     7   ar
    36    22    18   ar
    37    25    26    1
    38    14    17    1
    39     5     6    1
@<TRIPOS>MOLECULE
*****
 36 39 0 0 0
SMALL
GASTEIGER

@<TRIPOS>ATOM
      1 C          62.8310   83.6888   13.0489 C.ar    1  UNL1        0.1471
      2 N          62.1445   84.9573   12.6373 N.ar    1  UNL1       -0.2109
      3 C          62.2913   85.1029   11.1515 C.ar    1  UNL1        0.1686
      4 C          63.0686   83.9242   10.6449 C.ar    1  UNL1        0.1113
      5 N          63.4022   83.0503   11.8175 N.ar    1  UNL1       -0.3363
      6 H          63.9072   82.2058   11.7847 H       1  UNL1        0.1673
      7 N          61.7550   86.2293   10.3187 N.ar    1  UNL1       -0.2565
      8 C          60.9528   85.9347    9.0861 C.ar    1  UNL1        0.0857
      9 C          60.4165   87.0611    8.2533 C.ar    1  UNL1        0.0340
     10 C          60.6824   88.4821    8.6531 C.ar    1  UNL1        0.0569
     11 C          61.4847   88.7767    9.8858 C.ar    1  UNL1        0.0758
     12 C          62.0210   87.6503   10.7186 C.ar    1  UNL1        0.2672
     13 O          62.8233   87.9450   11.9513 O.2     1  UNL1       -0.2665
     14 N          60.1461   89.6084    7.8202 N.am    1  UNL1       -0.2790
     15 C          59.2966   89.3148    6.6194 C.2     1  UNL1        0.2678
     16 O          58.9834   87.8949    6.2514 O.2     1  UNL1       -0.2681
     17 H          60.3517   90.5404    8.0618 H       1  UNL1        0.1552
     18 C          58.7603   90.4413    5.7865 C.ar    1  UNL1        0.1419
     19 C          59.5775   91.4247    5.0023 C.ar    1  UNL1        0.0607
     20 S          58.6349   92.3732    4.3228 S.2     1  UNL1       -0.0638
     21 C          57.2351   91.9761    4.6872 C.ar    1  UNL1        0.1347
     22 N          57.3126   90.7821    5.5918 N.ar    1  UNL1       -0.2317
     23 C          62.5041   81.8000   13.9574 C.3     1  UNL1        0.0417
     24 C          62.9292   83.1528   14.4464 C.3     1  UNL1        0.1567
     25 O          63.0274   82.6168   15.8439 O.3     1  UNL1       -0.3756
     26 H          62.4922   81.8113   15.9196 H       1  UNL1        0.2112
     27 C          63.3544   84.5057   14.9353 C.ar    1  UNL1        0.0084
     28 C          64.2787   85.3466   14.1056 C.ar    1  UNL1       -0.0016
     29 C          64.7038   86.6994   14.5946 C.ar    1  UNL1       -0.0003
     30 C          64.2046   87.2113   15.9133 C.ar    1  UNL1        0.0038
     31 C          63.2804   86.3703   16.7430 C.ar    1  UNL1        0.0712
     32 C          62.8552   85.0175   16.2540 C.ar    1  UNL1        0.0022
     33 C          62.7812   86.8821   18.0616 C.3     1  UNL1        0.4186
     34 F          62.2820   87.3940   19.3803 F       1  UNL1       -0.1659
     35 F          62.3527   85.4948   18.4379 F       1  UNL1       -0.1659
     36 F          63.2097   88.2695   17.6853 F       1  UNL1       -0.1659
@<TRIPOS>BOND
     1    23    24    1
     2    24    25    1
     3    24    27    1
     4    27    28   ar
     5    28    29   ar
     6    29    30   ar
     7    30    31   ar
     8    31    33    1
     9    33    34    1
    10    33    35    1
    11    33    36    1
    12    31    32   ar
    13    24     1    1
    14     1     2   ar
    15     2     3   ar
    16     3     7    1
    17     7     8   ar
    18     8     9   ar
    19     9    10   ar
    20    10    14    1
    21    14    15   am
    22    15    16    2
    23    15    18    1
    24    18    19   ar
    25    19    20   ar
    26    20    21   ar
    27    21    22   ar
    28    10    11   ar
    29    11    12   ar
    30    12    13    2
    31     3     4   ar
    32     4     5   ar
    33    32    27   ar
    34     5     1   ar
    35    12     7   ar
    36    22    18   ar
    37    25    26    1
    38    14    17    1
    39     5     6    1
@<TRIPOS>MOLECULE
*****
 36 39 0 0 0
SMALL
GASTEIGER

@<TRIPOS>ATOM
      1 C          63.4671   84.6131   13.8655 C.ar    1  UNL1        0.1471
      2 N          63.0981   85.9224   13.2332 N.ar    1  UNL1       -0.2109
      3 C          62.3684   85.6308   11.9554 C.ar    1  UNL1        0.1686
      4 C          62.2865   84.1412   11.7980 C.ar    1  UNL1        0.1113
      5 N          62.9655   83.5123   12.9784 N.ar    1  UNL1       -0.3363
      6 H          63.0646   82.5466   13.1423 H       1  UNL1        0.1673
      7 N          61.8175   86.6497   11.0024 N.ar    1  UNL1       -0.2565
      8 C          60.9795   87.7822   11.5173 C.ar    1  UNL1        0.0857
      9 C          60.4286   88.8011   10.5643 C.ar    1  UNL1        0.0340
     10 C          60.7156   88.6875    9.0964 C.ar    1  UNL1        0.0569
     11 C          61.5536   87.5550    8.5815 C.ar    1  UNL1        0.0758
     12 C          62.1045   86.5360    9.5345 C.ar    1  UNL1        0.2672
     13 O          62.9425   85.4035    9.0196 O.2     1  UNL1       -0.2665
     14 N          60.1646   89.7064    8.1434 N.am    1  UNL1       -0.2790
     15 C          59.3068   89.2705    6.9927 C.2     1  UNL1        0.2678
     16 O          59.0000   87.8156    6.7951 O.2     1  UNL1       -0.2681
     17 H          60.3660   90.6613    8.2732 H       1  UNL1        0.1552
     18 C          58.7558   90.2895    6.0397 C.ar    1  UNL1        0.1419
     19 C          59.5604   91.1952    5.1552 C.ar    1  UNL1        0.0607
     20 S          58.6053   92.0471    4.3728 S.2     1  UNL1       -0.0638
     21 C          57.2106   91.6678    4.7737 C.ar    1  UNL1        0.1347
     22 N          57.3036   90.5816    5.8040 N.ar    1  UNL1       -0.2317
     23 C          64.5305   83.0209   14.7787 C.3     1  UNL1        0.0417
     24 C          64.2076   84.4358   15.1578 C.3     1  UNL1        0.1567
     25 O          64.9481   84.2585   16.4501 O.3     1  UNL1       -0.3756
     26 H          65.0145   83.3133   16.6577 H       1  UNL1        0.2112
     27 C          63.8847   85.8508   15.5369 C.ar    1  UNL1        0.0084
     28 C          63.0954   86.1324   16.7809 C.ar    1  UNL1       -0.0016
     29 C          62.7725   87.5473   17.1600 C.ar    1  UNL1       -0.0003
     30 C          63.2390   88.6806   16.2951 C.ar    1  UNL1        0.0038
     31 C          64.0283   88.3990   15.0511 C.ar    1  UNL1        0.0712
     32 C          64.3512   86.9841   14.6720 C.ar    1  UNL1        0.0022
     33 C          64.4948   89.5322   14.1861 C.3     1  UNL1        0.4186
     34 F          64.9613   90.6655   13.3212 F       1  UNL1       -0.1659
     35 F          64.8969   90.3008   15.4099 F       1  UNL1       -0.1659
     36 F          64.0927   88.7637   12.9623 F       1  UNL1       -0.1659
@<TRIPOS>BOND
     1    23    24    1
     2    24    25    1
     3    24    27    1
     4    27    28   ar
     5    28    29   ar
     6    29    30   ar
     7    30    31   ar
     8    31    33    1
     9    33    34    1
    10    33    35    1
    11    33    36    1
    12    31    32   ar
    13    24     1    1
    14     1     2   ar
    15     2     3   ar
    16     3     7    1
    17     7     8   ar
    18     8     9   ar
    19     9    10   ar
    20    10    14    1
    21    14    15   am
    22    15    16    2
    23    15    18    1
    24    18    19   ar
    25    19    20   ar
    26    20    21   ar
    27    21    22   ar
    28    10    11   ar
    29    11    12   ar
    30    12    13    2
    31     3     4   ar
    32     4     5   ar
    33    32    27   ar
    34     5     1   ar
    35    12     7   ar
    36    22    18   ar
    37    25    26    1
    38    14    17    1
    39     5     6    1
@<TRIPOS>MOLECULE
*****
 36 39 0 0 0
SMALL
GASTEIGER

@<TRIPOS>ATOM
      1 C          60.0487   87.8955    9.2658 C.ar    1  UNL1        0.1471
      2 N          60.2755   89.1744    8.5154 N.ar    1  UNL1       -0.2109
      3 C          59.6049   89.0529    7.1790 C.ar    1  UNL1        0.1686
      4 C          58.9638   87.6989    7.1036 C.ar    1  UNL1        0.1113
      5 N          59.2380   86.9836    8.3932 N.ar    1  UNL1       -0.3363
      6 H          58.9385   86.0751    8.6261 H       1  UNL1        0.1673
      7 N          59.5800   90.1012    6.1065 N.ar    1  UNL1       -0.2565
      8 C          60.8649   90.5980    5.5133 C.ar    1  UNL1        0.0857
      9 C          60.8399   91.6464    4.4408 C.ar    1  UNL1        0.0340
     10 C          59.5300   92.1980    3.9615 C.ar    1  UNL1        0.0569
     11 C          58.2450   91.7012    4.5548 C.ar    1  UNL1        0.0758
     12 C          58.2700   90.6529    5.6273 C.ar    1  UNL1        0.2672
     13 O          56.9850   90.1561    6.2206 O.2     1  UNL1       -0.2665
     14 N          59.5050   93.2464    2.8890 N.am    1  UNL1       -0.2790
     15 C          60.6203   93.3228    1.8889 C.2     1  UNL1        0.2678
     16 O          61.7605   92.3509    1.9612 O.2     1  UNL1       -0.2681
     17 H          58.7567   93.8843    2.8416 H       1  UNL1        0.1552
     18 C          60.5953   94.3713    0.8163 C.ar    1  UNL1        0.1419
     19 C          61.5858   94.5133   -0.3011 C.ar    1  UNL1        0.0607
     20 S          61.1780   95.6915   -1.1350 S.2     1  UNL1       -0.0638
     21 C          59.9355   96.2777   -0.5330 C.ar    1  UNL1        0.1347
     22 N          59.5753   95.4617    0.6730 N.ar    1  UNL1       -0.2317
     23 C          59.6112   88.6100   11.2146 C.3     1  UNL1        0.0417
     24 C          60.5454   87.5833   10.6463 C.3     1  UNL1        0.1567
     25 O          61.0421   87.2712   12.0268 O.3     1  UNL1       -0.3756
     26 H          60.8506   88.0177   12.6158 H       1  UNL1        0.2112
     27 C          61.4797   86.5566   10.0779 C.ar    1  UNL1        0.0084
     28 C          61.9100   86.6463    8.6438 C.ar    1  UNL1       -0.0016
     29 C          62.8442   85.6196    8.0755 C.ar    1  UNL1       -0.0003
     30 C          63.3482   84.5032    8.9413 C.ar    1  UNL1        0.0038
     31 C          62.9179   84.4135   10.3754 C.ar    1  UNL1        0.0712
     32 C          61.9837   85.4402   10.9437 C.ar    1  UNL1        0.0022
     33 C          63.4219   83.2970   11.2412 C.3     1  UNL1        0.4186
     34 F          63.9258   82.1806   12.1070 F       1  UNL1       -0.1659
     35 F          64.5337   83.0432   10.2668 F       1  UNL1       -0.1659
     36 F          62.3100   83.5508   12.2156 F       1  UNL1       -0.1659
@<TRIPOS>BOND
     1    23    24    1
     2    24    25    1
     3    24    27    1
     4    27    28   ar
     5    28    29   ar
     6    29    30   ar
     7    30    31   ar
     8    31    33    1
     9    33    34    1
    10    33    35    1
    11    33    36    1
    12    31    32   ar
    13    24     1    1
    14     1     2   ar
    15     2     3   ar
    16     3     7    1
    17     7     8   ar
    18     8     9   ar
    19     9    10   ar
    20    10    14    1
    21    14    15   am
    22    15    16    2
    23    15    18    1
    24    18    19   ar
    25    19    20   ar
    26    20    21   ar
    27    21    22   ar
    28    10    11   ar
    29    11    12   ar
    30    12    13    2
    31     3     4   ar
    32     4     5   ar
    33    32    27   ar
    34     5     1   ar
    35    12     7   ar
    36    22    18   ar
    37    25    26    1
    38    14    17    1
    39     5     6    1
@<TRIPOS>MOLECULE
*****
 36 39 0 0 0
SMALL
GASTEIGER

@<TRIPOS>ATOM
      1 C          60.7284   88.1784    9.2734 C.ar    1  UNL1        0.1471
      2 N          62.0324   88.5452    9.9176 N.ar    1  UNL1       -0.2109
      3 C          61.9119   89.9447   10.4441 C.ar    1  UNL1        0.1686
      4 C          60.5333   90.4428   10.1252 C.ar    1  UNL1        0.1113
      5 N          59.8019   89.3512    9.4017 N.ar    1  UNL1       -0.3363
      6 H          58.8763   89.3965    9.0694 H       1  UNL1        0.1673
      7 N          62.9820   90.7114   11.1632 N.ar    1  UNL1       -0.2565
      8 C          63.9007   91.6156   10.3963 C.ar    1  UNL1        0.0857
      9 C          64.9708   92.3823   11.1153 C.ar    1  UNL1        0.0340
     10 C          65.1221   92.2448   12.6013 C.ar    1  UNL1        0.0569
     11 C          64.2033   91.3406   13.3682 C.ar    1  UNL1        0.0758
     12 C          63.1332   90.5739   12.6492 C.ar    1  UNL1        0.2672
     13 O          62.2144   89.6697   13.4161 O.2     1  UNL1       -0.2665
     14 N          66.1922   93.0115   13.3203 N.am    1  UNL1       -0.2790
     15 C          67.0771   92.3147   14.3110 C.2     1  UNL1        0.2678
     16 O          66.8918   90.8512   14.5826 O.2     1  UNL1       -0.2681
     17 H          66.3138   93.9721   13.1420 H       1  UNL1        0.1552
     18 C          68.1472   93.0815   15.0301 C.ar    1  UNL1        0.1419
     19 C          69.6184   92.7920   14.9887 C.ar    1  UNL1        0.0607
     20 S          70.3143   93.8039   15.8498 S.2     1  UNL1       -0.0638
     21 C          69.2733   94.7188   16.4235 C.ar    1  UNL1        0.1347
     22 N          67.9339   94.2723   15.9169 N.ar    1  UNL1       -0.2317
     23 C          59.6340   87.5918    7.5535 C.3     1  UNL1        0.0417
     24 C          60.4072   86.8689    8.6163 C.3     1  UNL1        0.1567
     25 O          60.0860   85.5593    7.9591 O.3     1  UNL1       -0.3756
     26 H          59.3041   85.6640    7.3946 H       1  UNL1        0.2112
     27 C          61.1804   86.1460    9.6791 C.ar    1  UNL1        0.0084
     28 C          60.9547   86.4744   11.1252 C.ar    1  UNL1       -0.0016
     29 C          61.7278   85.7515   12.1880 C.ar    1  UNL1       -0.0003
     30 C          62.7267   84.7001   11.8047 C.ar    1  UNL1        0.0038
     31 C          62.9524   84.3717   10.3586 C.ar    1  UNL1        0.0712
     32 C          62.1793   85.0946    9.2958 C.ar    1  UNL1        0.0022
     33 C          63.9513   83.3204    9.9753 C.3     1  UNL1        0.4186
     34 F          64.9502   82.2691    9.5920 F       1  UNL1       -0.1659
     35 F          63.7552   83.6617    8.5279 F       1  UNL1       -0.1659
     36 F          64.1475   82.9791   11.4227 F       1  UNL1       -0.1659
@<TRIPOS>BOND
     1    23    24    1
     2    24    25    1
     3    24    27    1
     4    27    28   ar
     5    28    29   ar
     6    29    30   ar
     7    30    31   ar
     8    31    33    1
     9    33    34    1
    10    33    35    1
    11    33    36    1
    12    31    32   ar
    13    24     1    1
    14     1     2   ar
    15     2     3   ar
    16     3     7    1
    17     7     8   ar
    18     8     9   ar
    19     9    10   ar
    20    10    14    1
    21    14    15   am
    22    15    16    2
    23    15    18    1
    24    18    19   ar
    25    19    20   ar
    26    20    21   ar
    27    21    22   ar
    28    10    11   ar
    29    11    12   ar
    30    12    13    2
    31     3     4   ar
    32     4     5   ar
    33    32    27   ar
    34     5     1   ar
    35    12     7   ar
    36    22    18   ar
    37    25    26    1
    38    14    17    1
    39     5     6    1
