@<TRIPOS>MOLECULE
*****
 31 33 0 0 0
SMALL
GASTEIGER

@<TRIPOS>ATOM
      1 N          63.5032   88.4549   15.6230 N.3     1  UNL1       -0.2665
      2 C          63.0088   89.6476   14.8594 C.3     1  UNL1        0.0992
      3 C          65.8748   92.0829   12.3883 C.ar    1  UNL1        0.0001
      4 C          64.5465   91.6817   11.8183 C.ar    1  UNL1       -0.0003
      5 C          63.5911   90.8700   12.6420 C.ar    1  UNL1       -0.0029
      6 C          63.9641   90.4593   14.0357 C.ar    1  UNL1       -0.0061
      7 C          65.2925   90.8605   14.6056 C.ar    1  UNL1       -0.0029
      8 C          66.2477   91.6722   13.7819 C.ar    1  UNL1       -0.0003
      9 C          66.3061   93.8892   10.5714 C.2     1  UNL1        0.0598
     10 C          66.8300   92.8946   11.5645 C.2     1  UNL1        0.0047
     11 O          68.6443   94.1863    9.4786 O.2     1  UNL1       -0.2681
     12 C          67.2613   94.7010    9.7476 C.2     1  UNL1        0.2679
     13 N          66.8336   96.0273    9.1929 N.am    1  UNL1       -0.1934
     14 O          67.7888   96.8391    8.3692 O.3     1  UNL1       -0.2949
     15 H          65.9259   96.3651    9.3695 H       1  UNL1        0.1825
     16 H          68.6321   96.3660    8.2922 H       1  UNL1        0.2414
     17 C          63.0931   88.2566   17.0521 C.3     1  UNL1        0.1045
     18 C          62.6941   86.8938   17.5356 C.3     1  UNL1        0.1544
     19 O          61.3835   86.3011   17.1105 O.3     1  UNL1       -0.3805
     20 H          60.6562   86.8244   17.4820 H       1  UNL1        0.2105
     21 C          64.4078   87.4606   14.9573 C.3     1  UNL1        0.0772
     22 C          63.8746   86.5678   13.8762 C.3     1  UNL1        0.0453
     23 C          63.8010   85.0858   14.0957 C.2     1  UNL1       -0.0005
     24 C          63.9312   84.3822   15.4140 C.2     1  UNL1        0.0942
     25 N          63.7950   82.9087   15.1684 N.2     1  UNL1       -0.2482
     26 C          63.5806   82.7017   13.6983 C.2     1  UNL1        0.0631
     27 C          63.3824   81.4618   12.8778 C.3     1  UNL1        0.0717
     28 C          63.1880   81.5674   11.3942 C.2     1  UNL1       -0.0198
     29 C          63.1917   82.9129   10.7312 C.2     1  UNL1       -0.0042
     30 C          63.3899   84.1528   11.5518 C.2     1  UNL1        0.0006
     31 C          63.5843   84.0472   13.0353 C.2     1  UNL1        0.0114
@<TRIPOS>BOND
     1    11    12    2
     2    12     9    1
     3     9    10    2
     4    10     3    1
     5     3     4   ar
     6     4     5   ar
     7     5     6   ar
     8     6     2    1
     9     2     1    1
    10     1    17    1
    11    17    18    1
    12    18    19    1
    13     1    21    1
    14    21    22    1
    15    22    23    1
    16    23    24    2
    17    24    25    1
    18    25    26    2
    19    26    27    1
    20    27    28    1
    21    28    29    2
    22    29    30    1
    23    30    31    2
    24     6     7   ar
    25     7     8   ar
    26    12    13   am
    27    13    14    1
    28     8     3   ar
    29    31    23    1
    30    31    26    1
    31    19    20    1
    32    13    15    1
    33    14    16    1
@<TRIPOS>MOLECULE
*****
 31 33 0 0 0
SMALL
GASTEIGER

@<TRIPOS>ATOM
      1 N          60.7762   88.6154    9.3517 N.3     1  UNL1       -0.2665
      2 C          60.6943   89.7787   10.2951 C.3     1  UNL1        0.0992
      3 C          64.4447   91.4496   12.1371 C.ar    1  UNL1        0.0001
      4 C          63.5475   90.5566   12.9417 C.ar    1  UNL1       -0.0003
      5 C          62.2973   89.9996   12.3278 C.ar    1  UNL1       -0.0029
      6 C          61.9445   90.3356   10.9091 C.ar    1  UNL1       -0.0061
      7 C          62.8417   91.2287   10.1044 C.ar    1  UNL1       -0.0029
      8 C          64.0919   91.7857   10.7184 C.ar    1  UNL1       -0.0003
      9 C          66.1479   91.5251   14.0975 C.2     1  UNL1        0.0598
     10 C          65.6949   92.0066   12.7511 C.2     1  UNL1        0.0047
     11 O          67.3624   92.6531   16.0981 O.2     1  UNL1       -0.2681
     12 C          67.3980   92.0820   14.7116 C.2     1  UNL1        0.2679
     13 N          68.6838   92.0680   13.9391 N.am    1  UNL1       -0.1934
     14 O          69.9338   92.6249   14.5533 O.3     1  UNL1       -0.2949
     15 H          68.7072   91.6932   13.0290 H       1  UNL1        0.1825
     16 H          69.7381   92.9509   15.4456 H       1  UNL1        0.2414
     17 C          59.8101   88.5067    8.2094 C.3     1  UNL1        0.1045
     18 C          59.4839   87.1629    7.6282 C.3     1  UNL1        0.1544
     19 O          58.1394   86.5454    7.8748 O.3     1  UNL1       -0.3805
     20 H          58.0454   86.3413    8.8184 H       1  UNL1        0.2105
     21 C          61.8241   87.5608    9.5506 C.3     1  UNL1        0.0772
     22 C          61.6128   86.4751   10.5640 C.3     1  UNL1        0.0453
     23 C          62.4958   85.2626   10.5593 C.2     1  UNL1       -0.0005
     24 C          63.1748   84.6710    9.3597 C.2     1  UNL1        0.0942
     25 N          63.9535   83.4716    9.8125 N.2     1  UNL1       -0.2482
     26 C          63.7558   83.3219   11.2919 C.2     1  UNL1        0.0631
     27 C          64.2798   82.3207   12.2783 C.3     1  UNL1        0.0717
     28 C          63.9028   82.4264   13.7262 C.2     1  UNL1       -0.0198
     29 C          63.0019   83.5334   14.1878 C.2     1  UNL1       -0.0042
     30 C          62.4779   84.5346   13.2014 C.2     1  UNL1        0.0006
     31 C          62.8549   84.4288   11.7534 C.2     1  UNL1        0.0114
@<TRIPOS>BOND
     1    11    12    2
     2    12     9    1
     3     9    10    2
     4    10     3    1
     5     3     4   ar
     6     4     5   ar
     7     5     6   ar
     8     6     2    1
     9     2     1    1
    10     1    17    1
    11    17    18    1
    12    18    19    1
    13     1    21    1
    14    21    22    1
    15    22    23    1
    16    23    24    2
    17    24    25    1
    18    25    26    2
    19    26    27    1
    20    27    28    1
    21    28    29    2
    22    29    30    1
    23    30    31    2
    24     6     7   ar
    25     7     8   ar
    26    12    13   am
    27    13    14    1
    28     8     3   ar
    29    31    23    1
    30    31    26    1
    31    19    20    1
    32    13    15    1
    33    14    16    1
@<TRIPOS>MOLECULE
*****
 31 33 0 0 0
SMALL
GASTEIGER

@<TRIPOS>ATOM
      1 N          64.0440   87.6017   15.5242 N.3     1  UNL1       -0.2665
      2 C          64.4818   88.5716   14.4671 C.3     1  UNL1        0.0992
      3 C          61.9903   89.1382   10.7628 C.ar    1  UNL1        0.0001
      4 C          62.3448   87.7556   11.2240 C.ar    1  UNL1       -0.0003
      5 C          63.1753   87.5667   12.4588 C.ar    1  UNL1       -0.0029
      6 C          63.6513   88.7604   13.2323 C.ar    1  UNL1       -0.0061
      7 C          63.2968   90.1431   12.7711 C.ar    1  UNL1       -0.0029
      8 C          62.4663   90.3319   11.5363 C.ar    1  UNL1       -0.0003
      9 C          60.2852   88.2127    9.0349 C.2     1  UNL1        0.0598
     10 C          61.1598   89.3270    9.5280 C.2     1  UNL1        0.0047
     11 O          58.4991   87.3290    7.3679 O.2     1  UNL1       -0.2681
     12 C          59.4547   88.4014    7.8001 C.2     1  UNL1        0.2679
     13 N          59.5797   89.6625    6.9976 N.am    1  UNL1       -0.1934
     14 O          58.7491   89.8511    5.7628 O.3     1  UNL1       -0.2949
     15 H          60.2068   90.3664    7.2812 H       1  UNL1        0.1825
     16 H          58.1897   89.0704    5.6270 H       1  UNL1        0.2414
     17 C          63.1047   88.0451   16.6063 C.3     1  UNL1        0.1045
     18 C          62.5425   87.0417   17.5692 C.3     1  UNL1        0.1544
     19 O          61.3280   86.2439   17.1972 O.3     1  UNL1       -0.3805
     20 H          60.5643   86.8365   17.1160 H       1  UNL1        0.2105
     21 C          64.5457   86.1883   15.4992 C.3     1  UNL1        0.0772
     22 C          64.5938   85.4323   14.2044 C.3     1  UNL1        0.0453
     23 C          63.8944   84.1110   14.0810 C.2     1  UNL1       -0.0005
     24 C          63.1796   83.3856   15.1822 C.2     1  UNL1        0.0942
     25 N          62.6305   82.1095   14.6164 N.2     1  UNL1       -0.2482
     26 C          63.0061   82.0463   13.1655 C.2     1  UNL1        0.0631
     27 C          62.7376   81.0222   12.1030 C.3     1  UNL1        0.0717
     28 C          63.2504   81.2351   10.7095 C.2     1  UNL1       -0.0198
     29 C          64.0316   82.4721   10.3786 C.2     1  UNL1       -0.0042
     30 C          64.3000   83.4963   11.4412 C.2     1  UNL1        0.0006
     31 C          63.7872   83.2833   12.8346 C.2     1  UNL1        0.0114
@<TRIPOS>BOND
     1    11    12    2
     2    12     9    1
     3     9    10    2
     4    10     3    1
     5     3     4   ar
     6     4     5   ar
     7     5     6   ar
     8     6     2    1
     9     2     1    1
    10     1    17    1
    11    17    18    1
    12    18    19    1
    13     1    21    1
    14    21    22    1
    15    22    23    1
    16    23    24    2
    17    24    25    1
    18    25    26    2
    19    26    27    1
    20    27    28    1
    21    28    29    2
    22    29    30    1
    23    30    31    2
    24     6     7   ar
    25     7     8   ar
    26    12    13   am
    27    13    14    1
    28     8     3   ar
    29    31    23    1
    30    31    26    1
    31    19    20    1
    32    13    15    1
    33    14    16    1
@<TRIPOS>MOLECULE
*****
 31 33 0 0 0
SMALL
GASTEIGER

@<TRIPOS>ATOM
      1 N          60.7368   87.7092    9.8037 N.3     1  UNL1       -0.2665
      2 C          60.5910   89.1371   10.2392 C.3     1  UNL1        0.0992
      3 C          64.1446   91.3669   11.8671 C.ar    1  UNL1        0.0001
      4 C          63.3951   90.4079   12.7437 C.ar    1  UNL1       -0.0003
      5 C          62.2105   89.6646   12.2011 C.ar    1  UNL1       -0.0029
      6 C          61.7755   89.8804   10.7819 C.ar    1  UNL1       -0.0061
      7 C          62.5251   90.8395    9.9052 C.ar    1  UNL1       -0.0029
      8 C          63.7096   91.5827   10.4479 C.ar    1  UNL1       -0.0003
      9 C          66.0452   91.5963   13.6235 C.2     1  UNL1        0.0598
     10 C          65.3292   92.1102   12.4098 C.2     1  UNL1        0.0047
     11 O          67.0251   93.5325   15.0520 O.2     1  UNL1       -0.2681
     12 C          67.2298   92.3395   14.1662 C.2     1  UNL1        0.2679
     13 N          68.6190   91.8897   13.8232 N.am    1  UNL1       -0.1934
     14 O          69.8035   92.6329   14.3659 O.3     1  UNL1       -0.2949
     15 H          68.7534   91.1066   13.2418 H       1  UNL1        0.1825
     16 H          69.4977   93.3714   14.9155 H       1  UNL1        0.2414
     17 C          60.7110   87.3637    8.3443 C.3     1  UNL1        0.1045
     18 C          59.7142   86.3696    7.8264 C.3     1  UNL1        0.1544
     19 O          58.2485   86.6855    7.8688 O.3     1  UNL1       -0.3805
     20 H          57.9565   86.7422    8.7921 H       1  UNL1        0.2105
     21 C          60.9085   86.6267   10.8278 C.3     1  UNL1        0.0772
     22 C          62.0629   85.6742   10.7260 C.3     1  UNL1        0.0453
     23 C          62.7320   85.1709   11.9706 C.2     1  UNL1       -0.0005
     24 C          63.3258   86.0182   13.0566 C.2     1  UNL1        0.0942
     25 N          63.8855   85.1028   14.1048 N.2     1  UNL1       -0.2482
     26 C          63.6376   83.6898   13.6667 C.2     1  UNL1        0.0631
     27 C          63.9690   82.3703   14.2984 C.3     1  UNL1        0.0717
     28 C          63.5874   81.0929   13.6110 C.2     1  UNL1       -0.0198
     29 C          62.8744   81.1349   12.2920 C.2     1  UNL1       -0.0042
     30 C          62.5431   82.4544   11.6603 C.2     1  UNL1        0.0006
     31 C          62.9247   83.7319   12.3476 C.2     1  UNL1        0.0114
@<TRIPOS>BOND
     1    11    12    2
     2    12     9    1
     3     9    10    2
     4    10     3    1
     5     3     4   ar
     6     4     5   ar
     7     5     6   ar
     8     6     2    1
     9     2     1    1
    10     1    17    1
    11    17    18    1
    12    18    19    1
    13     1    21    1
    14    21    22    1
    15    22    23    1
    16    23    24    2
    17    24    25    1
    18    25    26    2
    19    26    27    1
    20    27    28    1
    21    28    29    2
    22    29    30    1
    23    30    31    2
    24     6     7   ar
    25     7     8   ar
    26    12    13   am
    27    13    14    1
    28     8     3   ar
    29    31    23    1
    30    31    26    1
    31    19    20    1
    32    13    15    1
    33    14    16    1
@<TRIPOS>MOLECULE
*****
 31 33 0 0 0
SMALL
GASTEIGER

@<TRIPOS>ATOM
      1 N          63.6835   88.7116   15.6925 N.3     1  UNL1       -0.2665
      2 C          64.3992   87.7609   14.7794 C.3     1  UNL1        0.0992
      3 C          62.2984   86.1055   11.1605 C.ar    1  UNL1        0.0001
      4 C          62.4833   87.5867   11.3082 C.ar    1  UNL1       -0.0003
      5 C          63.1836   88.1385   12.5145 C.ar    1  UNL1       -0.0029
      6 C          63.6990   87.2091   13.5731 C.ar    1  UNL1       -0.0061
      7 C          63.5140   85.7278   13.4253 C.ar    1  UNL1       -0.0029
      8 C          62.8137   85.1760   12.2190 C.ar    1  UNL1       -0.0003
      9 C          62.0526   85.9444    8.5791 C.2     1  UNL1        0.0598
     10 C          61.5981   85.5537    9.9541 C.2     1  UNL1        0.0047
     11 O          59.8788   85.6100    7.1963 O.2     1  UNL1       -0.2681
     12 C          61.3524   85.3927    7.3727 C.2     1  UNL1        0.2679
     13 N          62.1258   84.6238    6.3429 N.am    1  UNL1       -0.1934
     14 O          61.4255   84.0721    5.1365 O.3     1  UNL1       -0.2949
     15 H          63.0930   84.4812    6.4587 H       1  UNL1        0.1825
     16 H          60.4836   84.3003    5.1769 H       1  UNL1        0.2414
     17 C          63.1789   88.2371   17.0230 C.3     1  UNL1        0.1045
     18 C          62.8620   86.7858   17.2309 C.3     1  UNL1        0.1544
     19 O          61.4408   86.3110   17.1617 O.3     1  UNL1       -0.3805
     20 H          60.9358   86.6942   17.8959 H       1  UNL1        0.2105
     21 C          63.4724   90.1368   15.2751 C.3     1  UNL1        0.0772
     22 C          64.4205   91.2025   15.7392 C.3     1  UNL1        0.0453
     23 C          65.5221   91.6716   14.8357 C.2     1  UNL1       -0.0005
     24 C          66.9160   92.0306   15.2579 C.2     1  UNL1        0.0942
     25 N          67.6786   92.4449   14.0345 N.2     1  UNL1       -0.2482
     26 C          66.7561   92.3420   12.8562 C.2     1  UNL1        0.0631
     27 C          66.9574   92.6217   11.3964 C.3     1  UNL1        0.0717
     28 C          65.8260   92.4234   10.4317 C.2     1  UNL1       -0.0198
     29 C          64.4932   91.9455   10.9269 C.2     1  UNL1       -0.0042
     30 C          64.2918   91.6658   12.3868 C.2     1  UNL1        0.0006
     31 C          65.4233   91.8640   13.3514 C.2     1  UNL1        0.0114
@<TRIPOS>BOND
     1    11    12    2
     2    12     9    1
     3     9    10    2
     4    10     3    1
     5     3     4   ar
     6     4     5   ar
     7     5     6   ar
     8     6     2    1
     9     2     1    1
    10     1    17    1
    11    17    18    1
    12    18    19    1
    13     1    21    1
    14    21    22    1
    15    22    23    1
    16    23    24    2
    17    24    25    1
    18    25    26    2
    19    26    27    1
    20    27    28    1
    21    28    29    2
    22    29    30    1
    23    30    31    2
    24     6     7   ar
    25     7     8   ar
    26    12    13   am
    27    13    14    1
    28     8     3   ar
    29    31    23    1
    30    31    26    1
    31    19    20    1
    32    13    15    1
    33    14    16    1
@<TRIPOS>MOLECULE
*****
 31 33 0 0 0
SMALL
GASTEIGER

@<TRIPOS>ATOM
      1 N          60.9129   87.9318   10.5921 N.3     1  UNL1       -0.2665
      2 C          61.9448   88.8410    9.9935 C.3     1  UNL1        0.0992
      3 C          64.5152   91.3932   12.6637 C.ar    1  UNL1        0.0001
      4 C          64.1720   91.8629   11.2811 C.ar    1  UNL1       -0.0003
      5 C          63.3152   91.0122   10.3910 C.ar    1  UNL1       -0.0029
      6 C          62.8016   89.6918   10.8835 C.ar    1  UNL1       -0.0061
      7 C          63.1448   89.2220   12.2662 C.ar    1  UNL1       -0.0029
      8 C          64.0016   90.0728   13.1562 C.ar    1  UNL1       -0.0003
      9 C          66.4879   91.6209   14.3388 C.2     1  UNL1        0.0598
     10 C          65.3720   92.2440   13.5537 C.2     1  UNL1        0.0047
     11 O          66.8364   92.8989   16.5738 O.2     1  UNL1       -0.2681
     12 C          67.3448   92.4716   15.2289 C.2     1  UNL1        0.2679
     13 N          68.7100   92.8950   14.7740 N.am    1  UNL1       -0.1934
     14 O          69.5668   93.7457   15.6641 O.3     1  UNL1       -0.2949
     15 H          69.0437   92.6146   13.8913 H       1  UNL1        0.1825
     16 H          69.0920   93.9304   16.4895 H       1  UNL1        0.2414
     17 C          59.5922   88.4865   11.0374 C.3     1  UNL1        0.1045
     18 C          59.5474   89.6238   12.0144 C.3     1  UNL1        0.1544
     19 O          59.1939   91.0034   11.5437 O.3     1  UNL1       -0.3805
     20 H          59.8863   91.3289   10.9474 H       1  UNL1        0.2105
     21 C          61.2016   86.4679   10.7455 C.3     1  UNL1        0.0772
     22 C          62.1992   85.8018    9.8448 C.3     1  UNL1        0.0453
     23 C          62.9971   84.6336   10.3434 C.2     1  UNL1       -0.0005
     24 C          63.8349   83.7153    9.5038 C.2     1  UNL1        0.0942
     25 N          64.4529   82.6928   10.4107 N.2     1  UNL1       -0.2482
     26 C          63.9970   82.9790   11.8108 C.2     1  UNL1        0.0631
     27 C          64.2849   82.3023   13.1181 C.3     1  UNL1        0.0717
     28 C          63.6731   82.8252   14.3839 C.2     1  UNL1       -0.0198
     29 C          62.7734   84.0247   14.3423 C.2     1  UNL1       -0.0042
     30 C          62.4855   84.7013   13.0350 C.2     1  UNL1        0.0006
     31 C          63.0973   84.1785   11.7692 C.2     1  UNL1        0.0114
@<TRIPOS>BOND
     1    11    12    2
     2    12     9    1
     3     9    10    2
     4    10     3    1
     5     3     4   ar
     6     4     5   ar
     7     5     6   ar
     8     6     2    1
     9     2     1    1
    10     1    17    1
    11    17    18    1
    12    18    19    1
    13     1    21    1
    14    21    22    1
    15    22    23    1
    16    23    24    2
    17    24    25    1
    18    25    26    2
    19    26    27    1
    20    27    28    1
    21    28    29    2
    22    29    30    1
    23    30    31    2
    24     6     7   ar
    25     7     8   ar
    26    12    13   am
    27    13    14    1
    28     8     3   ar
    29    31    23    1
    30    31    26    1
    31    19    20    1
    32    13    15    1
    33    14    16    1
@<TRIPOS>MOLECULE
*****
 31 33 0 0 0
SMALL
GASTEIGER

@<TRIPOS>ATOM
      1 N          65.8685   92.0301   14.4761 N.3     1  UNL1       -0.2665
      2 C          64.8008   91.0005   14.6997 C.3     1  UNL1        0.0992
      3 C          62.6424   89.1979   11.1866 C.ar    1  UNL1        0.0001
      4 C          62.8270   90.6841   11.2714 C.ar    1  UNL1       -0.0003
      5 C          63.5464   91.2850   12.4424 C.ar    1  UNL1       -0.0029
      6 C          64.0814   90.3997   13.5287 C.ar    1  UNL1       -0.0061
      7 C          63.8968   88.9134   13.4439 C.ar    1  UNL1       -0.0029
      8 C          63.1773   88.3126   12.2729 C.ar    1  UNL1       -0.0003
      9 C          60.5580   89.0925    9.6394 C.2     1  UNL1        0.0598
     10 C          61.9229   88.5971   10.0155 C.2     1  UNL1        0.0047
     11 O          59.6980   89.2708    7.1943 O.2     1  UNL1       -0.2681
     12 C          59.8385   88.4917    8.4683 C.2     1  UNL1        0.2679
     13 N          59.2593   87.1118    8.5713 N.am    1  UNL1       -0.1934
     14 O          58.5398   86.5111    7.4002 O.3     1  UNL1       -0.2949
     15 H          59.3515   86.6005    9.4075 H       1  UNL1        0.1825
     16 H          58.5391   87.1416    6.6630 H       1  UNL1        0.2414
     17 C          66.7143   92.4951   15.6242 C.3     1  UNL1        0.1045
     18 C          67.7831   93.5235   15.4002 C.3     1  UNL1        0.1544
     19 O          69.1337   93.1048   14.8995 O.3     1  UNL1       -0.3805
     20 H          69.5722   92.5585   15.5705 H       1  UNL1        0.2105
     21 C          66.0903   92.5946   13.1042 C.3     1  UNL1        0.0772
     22 C          67.1787   92.0415   12.2325 C.3     1  UNL1        0.0453
     23 C          67.4334   92.6394   10.8805 C.2     1  UNL1       -0.0005
     24 C          68.1671   91.9815    9.7497 C.2     1  UNL1        0.0942
     25 N          68.1862   92.9356    8.5924 N.2     1  UNL1       -0.2482
     26 C          67.4643   94.1831    9.0080 C.2     1  UNL1        0.0631
     27 C          67.1705   95.4620    8.2814 C.3     1  UNL1        0.0717
     28 C          66.4114   96.5578    8.9690 C.2     1  UNL1       -0.0198
     29 C          65.9461   96.3747   10.3832 C.2     1  UNL1       -0.0042
     30 C          66.2399   95.0958   11.1098 C.2     1  UNL1        0.0006
     31 C          66.9990   94.0000   10.4222 C.2     1  UNL1        0.0114
@<TRIPOS>BOND
     1    11    12    2
     2    12     9    1
     3     9    10    2
     4    10     3    1
     5     3     4   ar
     6     4     5   ar
     7     5     6   ar
     8     6     2    1
     9     2     1    1
    10     1    17    1
    11    17    18    1
    12    18    19    1
    13     1    21    1
    14    21    22    1
    15    22    23    1
    16    23    24    2
    17    24    25    1
    18    25    26    2
    19    26    27    1
    20    27    28    1
    21    28    29    2
    22    29    30    1
    23    30    31    2
    24     6     7   ar
    25     7     8   ar
    26    12    13   am
    27    13    14    1
    28     8     3   ar
    29    31    23    1
    30    31    26    1
    31    19    20    1
    32    13    15    1
    33    14    16    1
@<TRIPOS>MOLECULE
*****
 31 33 0 0 0
SMALL
GASTEIGER

@<TRIPOS>ATOM
      1 N          63.6534   88.0285   15.7274 N.3     1  UNL1       -0.2665
      2 C          63.3173   89.4895   15.6783 C.3     1  UNL1        0.0992
      3 C          65.2830   92.1490   12.6265 C.ar    1  UNL1        0.0001
      4 C          65.8385   92.0652   14.0173 C.ar    1  UNL1       -0.0003
      5 C          65.1833   91.1787   15.0346 C.ar    1  UNL1       -0.0029
      6 C          63.9725   90.3760   14.6611 C.ar    1  UNL1       -0.0061
      7 C          63.4169   90.4598   13.2702 C.ar    1  UNL1       -0.0029
      8 C          64.0721   91.3463   12.2529 C.ar    1  UNL1       -0.0003
      9 C          66.8980   92.4533   10.6143 C.2     1  UNL1        0.0598
     10 C          65.9382   93.0355   11.6092 C.2     1  UNL1        0.0047
     11 O          68.3335   92.7355    8.4673 O.2     1  UNL1       -0.2681
     12 C          67.5533   93.3397    9.5970 C.2     1  UNL1        0.2679
     13 N          67.4284   94.8303    9.7094 N.am    1  UNL1       -0.1934
     14 O          68.0837   95.7166    8.6920 O.3     1  UNL1       -0.2949
     15 H          66.9163   95.2269   10.4508 H       1  UNL1        0.1825
     16 H          68.5436   95.1703    8.0355 H       1  UNL1        0.2414
     17 C          63.4511   87.2546   16.9963 C.3     1  UNL1        0.1045
     18 C          62.0633   86.9888   17.4996 C.3     1  UNL1        0.1544
     19 O          61.1668   86.0394   16.7616 O.3     1  UNL1       -0.3805
     20 H          60.9554   86.4065   15.8889 H       1  UNL1        0.2105
     21 C          64.1917   87.3415   14.5075 C.3     1  UNL1        0.0772
     22 C          64.2831   85.8447   14.4686 C.3     1  UNL1        0.0453
     23 C          63.6196   85.0813   13.3609 C.2     1  UNL1       -0.0005
     24 C          62.9951   85.6739   12.1326 C.2     1  UNL1        0.0942
     25 N          62.4536   84.5501   11.2997 N.2     1  UNL1       -0.2482
     26 C          62.7433   83.2629   12.0133 C.2     1  UNL1        0.0631
     27 C          62.4440   81.8343   11.6676 C.3     1  UNL1        0.0717
     28 C          62.8654   80.7340   12.5959 C.2     1  UNL1       -0.0198
     29 C          63.5860   81.0623   13.8698 C.2     1  UNL1       -0.0042
     30 C          63.8853   82.4909   14.2155 C.2     1  UNL1        0.0006
     31 C          63.4639   83.5912   13.2872 C.2     1  UNL1        0.0114
@<TRIPOS>BOND
     1    11    12    2
     2    12     9    1
     3     9    10    2
     4    10     3    1
     5     3     4   ar
     6     4     5   ar
     7     5     6   ar
     8     6     2    1
     9     2     1    1
    10     1    17    1
    11    17    18    1
    12    18    19    1
    13     1    21    1
    14    21    22    1
    15    22    23    1
    16    23    24    2
    17    24    25    1
    18    25    26    2
    19    26    27    1
    20    27    28    1
    21    28    29    2
    22    29    30    1
    23    30    31    2
    24     6     7   ar
    25     7     8   ar
    26    12    13   am
    27    13    14    1
    28     8     3   ar
    29    31    23    1
    30    31    26    1
    31    19    20    1
    32    13    15    1
    33    14    16    1
@<TRIPOS>MOLECULE
*****
 31 33 0 0 0
SMALL
GASTEIGER

@<TRIPOS>ATOM
      1 N          64.1141   90.8117   15.0240 N.3     1  UNL1       -0.2665
      2 C          63.7122   89.9865   16.2103 C.3     1  UNL1        0.0992
      3 C          63.3524   85.5175   15.8243 C.ar    1  UNL1        0.0001
      4 C          64.1503   86.2952   14.8201 C.ar    1  UNL1       -0.0003
      5 C          64.2703   87.7849   14.9488 C.ar    1  UNL1       -0.0029
      6 C          63.5923   88.4968   16.0816 C.ar    1  UNL1       -0.0061
      7 C          62.7943   87.7191   17.0859 C.ar    1  UNL1       -0.0029
      8 C          62.6744   86.2294   16.9572 C.ar    1  UNL1       -0.0003
      9 C          62.4586   83.4334   14.5565 C.2     1  UNL1        0.0598
     10 C          63.2325   84.0278   15.6956 C.2     1  UNL1        0.0047
     11 O          60.9880   81.2932   14.4764 O.2     1  UNL1       -0.2681
     12 C          62.3387   81.9438   14.4277 C.2     1  UNL1        0.2679
     13 N          63.5693   81.1047   14.2502 N.am    1  UNL1       -0.1934
     14 O          63.4492   79.6151   14.1214 O.3     1  UNL1       -0.2949
     15 H          64.4558   81.5317   14.2183 H       1  UNL1        0.1825
     16 H          62.5147   79.3603   14.1733 H       1  UNL1        0.2414
     17 C          65.3743   91.6241   15.0678 C.3     1  UNL1        0.1045
     18 C          65.6885   92.4566   16.2753 C.3     1  UNL1        0.1544
     19 O          64.5754   93.0207   17.1077 O.3     1  UNL1       -0.3805
     20 H          64.0797   93.6715   16.5864 H       1  UNL1        0.2105
     21 C          63.2558   90.8246   13.7940 C.3     1  UNL1        0.0772
     22 C          63.7382   90.1654   12.5358 C.3     1  UNL1        0.0453
     23 C          62.7564   89.7656   11.4746 C.2     1  UNL1       -0.0005
     24 C          62.0225   90.6973   10.5563 C.2     1  UNL1        0.0942
     25 N          61.1487   89.8713    9.6596 N.2     1  UNL1       -0.2482
     26 C          61.3425   88.4291   10.0236 C.2     1  UNL1        0.0631
     27 C          60.7426   87.1670    9.4786 C.3     1  UNL1        0.0717
     28 C          61.1363   85.8395   10.0553 C.2     1  UNL1       -0.0198
     29 C          62.1300   85.7742   11.1771 C.2     1  UNL1       -0.0042
     30 C          62.7299   87.0363   11.7221 C.2     1  UNL1        0.0006
     31 C          62.3362   88.3638   11.1454 C.2     1  UNL1        0.0114
@<TRIPOS>BOND
     1    11    12    2
     2    12     9    1
     3     9    10    2
     4    10     3    1
     5     3     4   ar
     6     4     5   ar
     7     5     6   ar
     8     6     2    1
     9     2     1    1
    10     1    17    1
    11    17    18    1
    12    18    19    1
    13     1    21    1
    14    21    22    1
    15    22    23    1
    16    23    24    2
    17    24    25    1
    18    25    26    2
    19    26    27    1
    20    27    28    1
    21    28    29    2
    22    29    30    1
    23    30    31    2
    24     6     7   ar
    25     7     8   ar
    26    12    13   am
    27    13    14    1
    28     8     3   ar
    29    31    23    1
    30    31    26    1
    31    19    20    1
    32    13    15    1
    33    14    16    1
