@<TRIPOS>MOLECULE
*****
 30 33 0 0 0
SMALL
GASTEIGER

@<TRIPOS>ATOM
      1 C          63.5499   90.3293   11.5156 C.3     1  UNL1        0.0983
      2 C          63.5991   91.3561   10.4232 C.3     1  UNL1        0.0280
      3 C          64.4396   92.5874   10.5885 C.3     1  UNL1        0.0453
      4 C          65.2310   92.7919   11.8463 C.ar    1  UNL1        0.0349
      5 C          66.1423   93.8976   12.2902 C.ar    1  UNL1       -0.0020
      6 C          66.6563   93.5542   13.6569 C.ar    1  UNL1        0.0317
      7 C          67.5881   94.2714   14.5882 C.ar    1  UNL1        0.0043
      8 C          67.9264   93.6706   15.9203 C.ar    1  UNL1        0.0208
      9 C          67.3328   92.3526   16.3211 C.ar    1  UNL1        0.1005
     10 N          66.4009   91.6355   15.3898 N.ar    1  UNL1       -0.2268
     11 C          66.0627   92.2363   14.0577 C.ar    1  UNL1        0.1433
     12 N          65.1818   91.7652   12.9387 N.ar    1  UNL1       -0.3150
     13 C          64.3413   90.5339   12.7734 C.3     1  UNL1        0.1268
     14 C          61.6108   89.0714   10.3293 C.2     1  UNL1        0.2293
     15 O          61.3527   90.2761    9.4736 O.2     1  UNL1       -0.2745
     16 N          62.7094   89.0979   11.3503 N.am    1  UNL1       -0.2772
     17 C          62.9674   87.8932   12.2059 C.3     1  UNL1        0.1149
     18 C          59.6073   87.5972   11.0798 C.3     1  UNL1        0.0143
     19 C          60.7702   87.8400   10.1639 C.3     1  UNL1        0.0989
     20 C          61.0925   86.8515    9.0828 C.ar    1  UNL1       -0.0137
     21 C          62.4636   86.2484    9.0024 C.ar    1  UNL1       -0.0015
     22 C          62.7859   85.2599    7.9213 C.ar    1  UNL1        0.0293
     23 C          61.7371   84.8745    6.9205 C.ar    1  UNL1        0.1401
     24 F          62.0594   83.8859    5.8393 F       1  UNL1       -0.2042
     25 C          60.3661   85.4776    7.0009 C.ar    1  UNL1        0.0293
     26 C          60.0438   86.4661    8.0820 C.ar    1  UNL1       -0.0015
     27 C          66.4802   95.1303   11.5051 C.3     1  UNL1        0.0692
     28 C          67.0501   95.0066   10.1230 C.2     1  UNL1        0.0548
     29 O          66.4997   95.8444    9.0071 O.co2   1  UNL1       -0.5488
     30 O          68.1702   94.0451    9.8569 O.co2   1  UNL1       -0.5488
@<TRIPOS>UNITY_ATOM_ATTR
29 1
charge -1
@<TRIPOS>BOND
     1    19    18    1
     2    19    14    1
     3    14    15    2
     4    14    16   am
     5    16    17    1
     6     1    16    1
     7     1     2    1
     8     2     3    1
     9     3     4    1
    10     4     5   ar
    11     5    27    1
    12    27    28    1
    13    28    29   ar
    14    28    30   ar
    15     5     6   ar
    16     6     7   ar
    17     7     8   ar
    18     8     9   ar
    19     9    10   ar
    20    10    11   ar
    21    11    12   ar
    22    12    13    1
    23    19    20    1
    24    20    21   ar
    25    21    22   ar
    26    22    23   ar
    27    23    24    1
    28    23    25   ar
    29    25    26   ar
    30    13     1    1
    31    26    20   ar
    32    12     4   ar
    33    11     6   ar
@<TRIPOS>MOLECULE
*****
 30 33 0 0 0
SMALL
GASTEIGER

@<TRIPOS>ATOM
      1 C          63.4122   90.6187   10.9822 C.3     1  UNL1        0.0983
      2 C          63.5924   91.7089    9.9678 C.3     1  UNL1        0.0280
      3 C          64.4756   92.8815   10.2759 C.3     1  UNL1        0.0453
      4 C          65.1785   92.9639   11.5984 C.ar    1  UNL1        0.0349
      5 C          66.1051   93.9900   12.1804 C.ar    1  UNL1       -0.0020
      6 C          66.4976   93.5339   13.5545 C.ar    1  UNL1        0.0317
      7 C          67.3894   94.1406   14.5968 C.ar    1  UNL1        0.0043
      8 C          67.5972   93.4394   15.9064 C.ar    1  UNL1        0.0208
      9 C          66.9131   92.1316   16.1737 C.ar    1  UNL1        0.1005
     10 N          66.0212   91.5249   15.1314 N.ar    1  UNL1       -0.2268
     11 C          65.8135   92.2260   13.8218 C.ar    1  UNL1        0.1433
     12 N          64.9983   91.8738   12.6129 N.ar    1  UNL1       -0.3150
     13 C          64.1151   90.7012   12.3047 C.3     1  UNL1        0.1268
     14 C          62.6135   88.2035   11.5101 C.2     1  UNL1        0.2293
     15 O          63.5812   88.1335   12.6541 O.2     1  UNL1       -0.2745
     16 N          62.5290   89.4460   10.6741 N.am    1  UNL1       -0.2772
     17 C          61.5614   89.5160    9.5301 C.3     1  UNL1        0.1149
     18 C          60.2422   87.2086   11.1396 C.3     1  UNL1        0.0143
     19 C          61.7303   87.0308   11.2020 C.3     1  UNL1        0.0989
     20 C          62.3353   85.6803   10.9563 C.ar    1  UNL1       -0.0137
     21 C          62.8157   85.3121    9.5838 C.ar    1  UNL1       -0.0015
     22 C          63.4206   83.9617    9.3383 C.ar    1  UNL1        0.0293
     23 C          63.5451   82.9795   10.4651 C.ar    1  UNL1        0.1401
     24 F          64.1501   81.6290   10.2194 F       1  UNL1       -0.2042
     25 C          63.0647   83.3477   11.8375 C.ar    1  UNL1        0.0293
     26 C          62.4598   84.6981   12.0831 C.ar    1  UNL1       -0.0015
     27 C          66.5596   95.2507   11.5066 C.3     1  UNL1        0.0692
     28 C          67.0632   95.2067   10.0943 C.2     1  UNL1        0.0548
     29 O          68.1598   94.2547    9.7184 O.co2   1  UNL1       -0.5488
     30 O          66.4703   96.1147    9.0579 O.co2   1  UNL1       -0.5488
@<TRIPOS>UNITY_ATOM_ATTR
29 1
charge -1
@<TRIPOS>BOND
     1    19    18    1
     2    19    14    1
     3    14    15    2
     4    14    16   am
     5    16    17    1
     6     1    16    1
     7     1     2    1
     8     2     3    1
     9     3     4    1
    10     4     5   ar
    11     5    27    1
    12    27    28    1
    13    28    29   ar
    14    28    30   ar
    15     5     6   ar
    16     6     7   ar
    17     7     8   ar
    18     8     9   ar
    19     9    10   ar
    20    10    11   ar
    21    11    12   ar
    22    12    13    1
    23    19    20    1
    24    20    21   ar
    25    21    22   ar
    26    22    23   ar
    27    23    24    1
    28    23    25   ar
    29    25    26   ar
    30    13     1    1
    31    26    20   ar
    32    12     4   ar
    33    11     6   ar
@<TRIPOS>MOLECULE
*****
 30 33 0 0 0
SMALL
GASTEIGER

@<TRIPOS>ATOM
      1 C          63.6781   89.2598   12.6772 C.3     1  UNL1        0.0983
      2 C          64.1823   89.1665   14.0869 C.3     1  UNL1        0.0280
      3 C          64.9854   90.2900   14.6721 C.3     1  UNL1        0.0453
      4 C          65.2844   91.5070   13.8476 C.ar    1  UNL1        0.0349
      5 C          66.0453   92.7633   14.1519 C.ar    1  UNL1       -0.0020
      6 C          66.0115   93.6332   12.9303 C.ar    1  UNL1        0.0317
      7 C          66.5916   94.9868   12.6456 C.ar    1  UNL1        0.0043
      8 C          66.3898   95.6217   11.3017 C.ar    1  UNL1        0.0208
      9 C          65.6078   94.9029   10.2425 C.ar    1  UNL1        0.1005
     10 N          65.0277   93.5493   10.5271 N.ar    1  UNL1       -0.2268
     11 C          65.2295   92.9144   11.8710 C.ar    1  UNL1        0.1433
     12 N          64.7802   91.6004   12.4380 N.ar    1  UNL1       -0.3150
     13 C          63.9770   90.4768   11.8528 C.3     1  UNL1        0.1268
     14 C          63.0968   86.7301   12.5649 C.2     1  UNL1        0.2293
     15 O          64.1217   86.4476   13.6230 O.2     1  UNL1       -0.2745
     16 N          62.8749   88.1362   12.0920 N.am    1  UNL1       -0.2772
     17 C          61.8499   88.4188   11.0338 C.3     1  UNL1        0.1149
     18 C          61.3366   85.8746   10.8560 C.3     1  UNL1        0.0143
     19 C          62.2936   85.6065   11.9796 C.3     1  UNL1        0.0989
     20 C          62.4473   84.2149   12.5180 C.ar    1  UNL1       -0.0137
     21 C          62.2947   83.9583   13.9880 C.ar    1  UNL1       -0.0015
     22 C          62.4485   82.5667   14.5262 C.ar    1  UNL1        0.0293
     23 C          62.7548   81.4318   13.5946 C.ar    1  UNL1        0.1401
     24 F          62.9086   80.0401   14.1329 F       1  UNL1       -0.2042
     25 C          62.9074   81.6884   12.1246 C.ar    1  UNL1        0.0293
     26 C          62.7536   83.0800   11.5863 C.ar    1  UNL1       -0.0015
     27 C          66.7215   93.0921   15.4498 C.3     1  UNL1        0.0692
     28 C          68.1862   93.4151   15.4717 C.2     1  UNL1        0.0548
     29 O          68.7073   94.4725   16.3993 O.co2   1  UNL1       -0.5488
     30 O          69.1298   92.6806   14.5661 O.co2   1  UNL1       -0.5488
@<TRIPOS>UNITY_ATOM_ATTR
29 1
charge -1
@<TRIPOS>BOND
     1    19    18    1
     2    19    14    1
     3    14    15    2
     4    14    16   am
     5    16    17    1
     6     1    16    1
     7     1     2    1
     8     2     3    1
     9     3     4    1
    10     4     5   ar
    11     5    27    1
    12    27    28    1
    13    28    29   ar
    14    28    30   ar
    15     5     6   ar
    16     6     7   ar
    17     7     8   ar
    18     8     9   ar
    19     9    10   ar
    20    10    11   ar
    21    11    12   ar
    22    12    13    1
    23    19    20    1
    24    20    21   ar
    25    21    22   ar
    26    22    23   ar
    27    23    24    1
    28    23    25   ar
    29    25    26   ar
    30    13     1    1
    31    26    20   ar
    32    12     4   ar
    33    11     6   ar
@<TRIPOS>MOLECULE
*****
 30 33 0 0 0
SMALL
GASTEIGER

@<TRIPOS>ATOM
      1 C          63.3682   89.2594   12.3374 C.3     1  UNL1        0.0983
      2 C          63.9027   89.0237   13.7189 C.3     1  UNL1        0.0280
      3 C          64.7967   90.0426   14.3612 C.3     1  UNL1        0.0453
      4 C          65.1562   91.2973   13.6218 C.ar    1  UNL1        0.0349
      5 C          66.0097   92.4729   13.9954 C.ar    1  UNL1       -0.0020
      6 C          66.0027   93.4351   12.8447 C.ar    1  UNL1        0.0317
      7 C          66.6666   94.7652   12.6446 C.ar    1  UNL1        0.0043
      8 C          66.4728   95.5143   11.3597 C.ar    1  UNL1        0.0208
      9 C          65.6150   94.9335   10.2749 C.ar    1  UNL1        0.1005
     10 N          64.9511   93.6034   10.4750 N.ar    1  UNL1       -0.2268
     11 C          65.1449   92.8542   11.7600 C.ar    1  UNL1        0.1433
     12 N          64.6218   91.5330   12.2402 N.ar    1  UNL1       -0.3150
     13 C          63.7278   90.5140   11.5980 C.3     1  UNL1        0.1268
     14 C          61.5752   88.6392   10.5624 C.2     1  UNL1        0.2293
     15 O          61.5701   90.0568   10.0721 O.2     1  UNL1       -0.2745
     16 N          62.4742   88.2404   11.6950 N.am    1  UNL1       -0.2772
     17 C          62.4792   86.8228   12.1854 C.3     1  UNL1        0.1149
     18 C          59.2356   87.5375   10.3120 C.3     1  UNL1        0.0143
     19 C          60.6811   87.6202    9.9201 C.3     1  UNL1        0.0989
     20 C          61.2326   86.6841    8.8860 C.ar    1  UNL1       -0.0137
     21 C          62.6541   86.2145    8.9813 C.ar    1  UNL1       -0.0015
     22 C          63.2055   85.2784    7.9471 C.ar    1  UNL1        0.0293
     23 C          62.3356   84.8118    6.8178 C.ar    1  UNL1        0.1401
     24 F          62.8871   83.8756    5.7836 F       1  UNL1       -0.2042
     25 C          60.9141   85.2813    6.7225 C.ar    1  UNL1        0.0293
     26 C          60.3627   86.2175    7.7566 C.ar    1  UNL1       -0.0015
     27 C          66.7417   92.6544   15.2921 C.3     1  UNL1        0.0692
     28 C          68.1486   93.1747   15.2926 C.2     1  UNL1        0.0548
     29 O          68.5379   94.2834   16.2249 O.co2   1  UNL1       -0.5488
     30 O          69.1663   92.5861   14.3609 O.co2   1  UNL1       -0.5488
@<TRIPOS>UNITY_ATOM_ATTR
29 1
charge -1
@<TRIPOS>BOND
     1    19    18    1
     2    19    14    1
     3    14    15    2
     4    14    16   am
     5    16    17    1
     6     1    16    1
     7     1     2    1
     8     2     3    1
     9     3     4    1
    10     4     5   ar
    11     5    27    1
    12    27    28    1
    13    28    29   ar
    14    28    30   ar
    15     5     6   ar
    16     6     7   ar
    17     7     8   ar
    18     8     9   ar
    19     9    10   ar
    20    10    11   ar
    21    11    12   ar
    22    12    13    1
    23    19    20    1
    24    20    21   ar
    25    21    22   ar
    26    22    23   ar
    27    23    24    1
    28    23    25   ar
    29    25    26   ar
    30    13     1    1
    31    26    20   ar
    32    12     4   ar
    33    11     6   ar
@<TRIPOS>MOLECULE
*****
 30 33 0 0 0
SMALL
GASTEIGER

@<TRIPOS>ATOM
      1 C          63.6883   90.4636   11.7103 C.3     1  UNL1        0.0983
      2 C          64.2065   90.3015   13.1086 C.3     1  UNL1        0.0280
      3 C          65.0768   91.3628   13.7136 C.3     1  UNL1        0.0453
      4 C          65.4289   92.5863   12.9204 C.ar    1  UNL1        0.0349
      5 C          66.2603   93.7908   13.2492 C.ar    1  UNL1       -0.0020
      6 C          66.2559   94.6973   12.0541 C.ar    1  UNL1        0.0317
      7 C          66.9036   96.0262   11.7999 C.ar    1  UNL1        0.0043
      8 C          66.7172   96.7108   10.4784 C.ar    1  UNL1        0.0208
      9 C          65.8832   96.0665    9.4110 C.ar    1  UNL1        0.1005
     10 N          65.2355   94.7377    9.6652 N.ar    1  UNL1       -0.2268
     11 C          65.4218   94.0531   10.9867 C.ar    1  UNL1        0.1433
     12 N          64.9107   92.7485   11.5221 N.ar    1  UNL1       -0.3150
     13 C          64.0404   91.6871   10.9171 C.3     1  UNL1        0.1268
     14 C          62.7387   88.0455   11.7400 C.2     1  UNL1        0.2293
     15 O          63.5296   87.7501   12.9798 O.2     1  UNL1       -0.2745
     16 N          62.8180   89.4023   11.1052 N.am    1  UNL1       -0.2772
     17 C          62.0271   89.6977    9.8653 C.3     1  UNL1        0.1149
     18 C          60.4400   87.2899   10.7937 C.3     1  UNL1        0.0143
     19 C          61.8683   86.9842   11.1348 C.3     1  UNL1        0.0989
     20 C          62.4264   85.6171   10.8709 C.ar    1  UNL1       -0.0137
     21 C          62.9389   85.2670    9.5053 C.ar    1  UNL1       -0.0015
     22 C          63.4969   83.9000    9.2414 C.ar    1  UNL1        0.0293
     23 C          63.5424   82.8830   10.3430 C.ar    1  UNL1        0.1401
     24 F          64.1004   81.5158   10.0790 F       1  UNL1       -0.2042
     25 C          63.0299   83.2330   11.7086 C.ar    1  UNL1        0.0293
     26 C          62.4719   84.6001   11.9725 C.ar    1  UNL1       -0.0015
     27 C          66.9712   94.0443   14.5454 C.3     1  UNL1        0.0692
     28 C          67.9596   93.0436   15.0670 C.2     1  UNL1        0.0548
     29 O          67.7205   92.3707   16.3861 O.co2   1  UNL1       -0.5488
     30 O          69.1869   92.7158   14.2693 O.co2   1  UNL1       -0.5488
@<TRIPOS>UNITY_ATOM_ATTR
29 1
charge -1
@<TRIPOS>BOND
     1    19    18    1
     2    19    14    1
     3    14    15    2
     4    14    16   am
     5    16    17    1
     6     1    16    1
     7     1     2    1
     8     2     3    1
     9     3     4    1
    10     4     5   ar
    11     5    27    1
    12    27    28    1
    13    28    29   ar
    14    28    30   ar
    15     5     6   ar
    16     6     7   ar
    17     7     8   ar
    18     8     9   ar
    19     9    10   ar
    20    10    11   ar
    21    11    12   ar
    22    12    13    1
    23    19    20    1
    24    20    21   ar
    25    21    22   ar
    26    22    23   ar
    27    23    24    1
    28    23    25   ar
    29    25    26   ar
    30    13     1    1
    31    26    20   ar
    32    12     4   ar
    33    11     6   ar
@<TRIPOS>MOLECULE
*****
 30 33 0 0 0
SMALL
GASTEIGER

@<TRIPOS>ATOM
      1 C          63.3770   89.4707   12.5456 C.3     1  UNL1        0.0983
      2 C          62.5459   89.7811   11.3360 C.3     1  UNL1        0.0280
      3 C          61.9594   88.6655   10.5227 C.3     1  UNL1        0.0453
      4 C          62.2039   87.2396   10.9190 C.ar    1  UNL1        0.0349
      5 C          61.7593   85.9400   10.3162 C.ar    1  UNL1       -0.0020
      6 C          62.3156   84.8264   11.1533 C.ar    1  UNL1        0.0317
      7 C          62.2061   83.3347   11.0402 C.ar    1  UNL1        0.0043
      8 C          62.8849   82.4544   12.0473 C.ar    1  UNL1        0.0208
      9 C          63.6733   83.0659   13.1674 C.ar    1  UNL1        0.1005
     10 N          63.7829   84.5575   13.2804 N.ar    1  UNL1       -0.2268
     11 C          63.1040   85.4378   12.2733 C.ar    1  UNL1        0.1433
     12 N          63.0350   86.9292   12.1285 N.ar    1  UNL1       -0.3150
     13 C          63.6215   88.0448   12.9418 C.3     1  UNL1        0.1268
     14 C          64.2292   90.3883   14.8219 C.2     1  UNL1        0.2293
     15 O          63.9083   89.0749   15.4715 O.2     1  UNL1       -0.2745
     16 N          63.9636   90.5863   13.3589 N.am    1  UNL1       -0.2772
     17 C          64.2844   91.8997   12.7093 C.3     1  UNL1        0.1149
     18 C          63.9933   92.1698   16.6983 C.3     1  UNL1        0.0143
     19 C          64.8158   91.5039   15.6353 C.3     1  UNL1        0.0989
     20 C          66.2248   91.9536   15.3855 C.ar    1  UNL1       -0.0137
     21 C          67.0124   91.3600   14.2553 C.ar    1  UNL1       -0.0015
     22 C          68.4214   91.8097   14.0057 C.ar    1  UNL1        0.0293
     23 C          69.0429   92.8529   14.8862 C.ar    1  UNL1        0.1401
     24 F          70.4520   93.3027   14.6365 F       1  UNL1       -0.2042
     25 C          68.2553   93.4466   16.0164 C.ar    1  UNL1        0.0293
     26 C          66.8463   92.9969   16.2660 C.ar    1  UNL1       -0.0015
     27 C          60.9079   85.7816    9.0915 C.3     1  UNL1        0.0692
     28 C          61.5302   85.3524    7.7958 C.2     1  UNL1        0.0548
     29 O          63.0158   85.1676    7.7022 O.co2   1  UNL1       -0.5488
     30 O          60.6668   85.1079    6.5938 O.co2   1  UNL1       -0.5488
@<TRIPOS>UNITY_ATOM_ATTR
29 1
charge -1
@<TRIPOS>BOND
     1    19    18    1
     2    19    14    1
     3    14    15    2
     4    14    16   am
     5    16    17    1
     6     1    16    1
     7     1     2    1
     8     2     3    1
     9     3     4    1
    10     4     5   ar
    11     5    27    1
    12    27    28    1
    13    28    29   ar
    14    28    30   ar
    15     5     6   ar
    16     6     7   ar
    17     7     8   ar
    18     8     9   ar
    19     9    10   ar
    20    10    11   ar
    21    11    12   ar
    22    12    13    1
    23    19    20    1
    24    20    21   ar
    25    21    22   ar
    26    22    23   ar
    27    23    24    1
    28    23    25   ar
    29    25    26   ar
    30    13     1    1
    31    26    20   ar
    32    12     4   ar
    33    11     6   ar
@<TRIPOS>MOLECULE
*****
 30 33 0 0 0
SMALL
GASTEIGER

@<TRIPOS>ATOM
      1 C          63.6492   90.1917   12.1666 C.3     1  UNL1        0.0983
      2 C          62.6909   90.4341   11.0383 C.3     1  UNL1        0.0280
      3 C          61.9292   89.2878   10.4420 C.3     1  UNL1        0.0453
      4 C          62.1256   87.8991   10.9740 C.ar    1  UNL1        0.0349
      5 C          61.5191   86.5820   10.5900 C.ar    1  UNL1       -0.0020
      6 C          62.1025   85.5256   11.4809 C.ar    1  UNL1        0.0317
      7 C          61.8781   84.0448   11.5619 C.ar    1  UNL1        0.0043
      8 C          62.6208   83.2281   12.5775 C.ar    1  UNL1        0.0208
      9 C          63.5878   83.8923   13.5121 C.ar    1  UNL1        0.1005
     10 N          63.8123   85.3732   13.4312 N.ar    1  UNL1       -0.2268
     11 C          63.0696   86.1899   12.4156 C.ar    1  UNL1        0.1433
     12 N          63.0839   87.6567   12.1022 N.ar    1  UNL1       -0.3150
     13 C          63.8456   88.8030   12.6986 C.3     1  UNL1        0.1268
     14 C          65.2758   92.1987   11.8903 C.2     1  UNL1        0.2293
     15 O          65.3788   91.9130   10.4214 O.2     1  UNL1       -0.2745
     16 N          64.4110   91.3381   12.7630 N.am    1  UNL1       -0.2772
     17 C          64.3080   91.6238   14.2319 C.3     1  UNL1        0.1149
     18 C          65.8450   94.7330   11.9513 C.3     1  UNL1        0.0143
     19 C          66.0376   93.3450   12.4867 C.3     1  UNL1        0.0989
     20 C          66.9920   93.1035   13.6184 C.ar    1  UNL1       -0.0137
     21 C          68.0758   92.0759   13.4791 C.ar    1  UNL1       -0.0015
     22 C          69.0302   91.8343   14.6108 C.ar    1  UNL1        0.0293
     23 C          68.9007   92.6203   15.8818 C.ar    1  UNL1        0.1401
     24 F          69.8551   92.3788   17.0135 F       1  UNL1       -0.2042
     25 C          67.8169   93.6479   16.0210 C.ar    1  UNL1        0.0293
     26 C          66.8626   93.8894   14.8894 C.ar    1  UNL1       -0.0015
     27 C          60.5069   86.3602    9.5054 C.3     1  UNL1        0.0692
     28 C          60.9370   85.8035    8.1805 C.2     1  UNL1        0.0548
     29 O          62.3821   85.4856    7.9340 O.co2   1  UNL1       -0.5488
     30 O          59.9220   85.5647    7.1022 O.co2   1  UNL1       -0.5488
@<TRIPOS>UNITY_ATOM_ATTR
29 1
charge -1
@<TRIPOS>BOND
     1    19    18    1
     2    19    14    1
     3    14    15    2
     4    14    16   am
     5    16    17    1
     6     1    16    1
     7     1     2    1
     8     2     3    1
     9     3     4    1
    10     4     5   ar
    11     5    27    1
    12    27    28    1
    13    28    29   ar
    14    28    30   ar
    15     5     6   ar
    16     6     7   ar
    17     7     8   ar
    18     8     9   ar
    19     9    10   ar
    20    10    11   ar
    21    11    12   ar
    22    12    13    1
    23    19    20    1
    24    20    21   ar
    25    21    22   ar
    26    22    23   ar
    27    23    24    1
    28    23    25   ar
    29    25    26   ar
    30    13     1    1
    31    26    20   ar
    32    12     4   ar
    33    11     6   ar
@<TRIPOS>MOLECULE
*****
 30 33 0 0 0
SMALL
GASTEIGER

@<TRIPOS>ATOM
      1 C          63.4234   89.1911   12.7510 C.3     1  UNL1        0.0983
      2 C          63.7988   87.8113   13.2041 C.3     1  UNL1        0.0280
      3 C          63.2604   86.6123   12.4813 C.3     1  UNL1        0.0453
      4 C          62.3467   86.7930   11.3055 C.ar    1  UNL1        0.0349
      5 C          61.6654   85.8075   10.4030 C.ar    1  UNL1       -0.0020
      6 C          60.8690   86.5782    9.3922 C.ar    1  UNL1        0.0317
      7 C          59.9960   86.1377    8.2547 C.ar    1  UNL1        0.0043
      8 C          59.3121   87.1590    7.3950 C.ar    1  UNL1        0.0208
      9 C          59.5012   88.6209    7.6728 C.ar    1  UNL1        0.1005
     10 N          60.3742   89.0614    8.8103 N.ar    1  UNL1       -0.2268
     11 C          61.0580   88.0400    9.6700 C.ar    1  UNL1        0.1433
     12 N          61.9713   88.1728   10.8525 N.ar    1  UNL1       -0.3150
     13 C          62.5097   89.3718   11.5752 C.3     1  UNL1        0.1268
     14 C          64.2552   90.3112   14.9427 C.2     1  UNL1        0.2293
     15 O          64.0103   89.0332   15.6889 O.2     1  UNL1       -0.2745
     16 N          63.9617   90.3903   13.4738 N.am    1  UNL1       -0.2772
     17 C          64.2066   91.6683   12.7277 C.3     1  UNL1        0.1149
     18 C          63.9243   92.2539   16.6359 C.3     1  UNL1        0.0143
     19 C          64.7935   91.5104   15.6655 C.3     1  UNL1        0.0989
     20 C          66.2010   91.9659   15.4179 C.ar    1  UNL1       -0.0137
     21 C          66.8290   92.9860   16.3207 C.ar    1  UNL1       -0.0015
     22 C          68.2365   93.4415   16.0730 C.ar    1  UNL1        0.0293
     23 C          69.0160   92.8770   14.9226 C.ar    1  UNL1        0.1401
     24 F          70.4236   93.3326   14.6749 F       1  UNL1       -0.2042
     25 C          68.3881   91.8569   14.0197 C.ar    1  UNL1        0.0293
     26 C          66.9806   91.4014   14.2674 C.ar    1  UNL1       -0.0015
     27 C          61.7633   84.3135   10.4951 C.3     1  UNL1        0.0692
     28 C          63.0431   83.6719   10.9432 C.2     1  UNL1        0.0548
     29 O          64.1847   83.5239    9.9816 O.co2   1  UNL1       -0.5488
     30 O          63.1811   83.1784   12.3530 O.co2   1  UNL1       -0.5488
@<TRIPOS>UNITY_ATOM_ATTR
29 1
charge -1
@<TRIPOS>BOND
     1    19    18    1
     2    19    14    1
     3    14    15    2
     4    14    16   am
     5    16    17    1
     6     1    16    1
     7     1     2    1
     8     2     3    1
     9     3     4    1
    10     4     5   ar
    11     5    27    1
    12    27    28    1
    13    28    29   ar
    14    28    30   ar
    15     5     6   ar
    16     6     7   ar
    17     7     8   ar
    18     8     9   ar
    19     9    10   ar
    20    10    11   ar
    21    11    12   ar
    22    12    13    1
    23    19    20    1
    24    20    21   ar
    25    21    22   ar
    26    22    23   ar
    27    23    24    1
    28    23    25   ar
    29    25    26   ar
    30    13     1    1
    31    26    20   ar
    32    12     4   ar
    33    11     6   ar
@<TRIPOS>MOLECULE
*****
 30 33 0 0 0
SMALL
GASTEIGER

@<TRIPOS>ATOM
      1 C          62.0686   88.8574   10.3930 C.3     1  UNL1        0.0983
      2 C          62.0041   87.9923   11.6167 C.3     1  UNL1        0.0280
      3 C          62.7745   88.3734   12.8460 C.3     1  UNL1        0.0453
      4 C          63.6093   89.6197   12.8516 C.ar    1  UNL1        0.0349
      5 C          64.4708   90.2459   13.9078 C.ar    1  UNL1       -0.0020
      6 C          65.0677   91.4980   13.3369 C.ar    1  UNL1        0.0317
      7 C          65.9961   92.5228   13.9181 C.ar    1  UNL1        0.0043
      8 C          66.4319   93.6952   13.0901 C.ar    1  UNL1        0.0208
      9 C          65.9393   93.8429   11.6811 C.ar    1  UNL1        0.1005
     10 N          65.0109   92.8181   11.0999 N.ar    1  UNL1       -0.2268
     11 C          64.5751   91.6457   11.9278 C.ar    1  UNL1        0.1433
     12 N          63.6738   90.4848   11.6279 N.ar    1  UNL1       -0.3150
     13 C          62.9034   90.1036   10.3986 C.3     1  UNL1        0.1268
     14 C          60.1707   89.3430    8.6864 C.2     1  UNL1        0.2293
     15 O          59.8136   90.5907    9.4385 O.2     1  UNL1       -0.2745
     16 N          61.2981   88.4763    9.1635 N.am    1  UNL1       -0.2772
     17 C          61.6553   87.2286    8.4114 C.3     1  UNL1        0.1149
     18 C          58.7559   87.6104    7.3646 C.3     1  UNL1        0.0143
     19 C          59.4003   88.9618    7.4570 C.3     1  UNL1        0.0989
     20 C          59.2743   89.9321    6.3200 C.ar    1  UNL1       -0.0137
     21 C          60.4991   90.3883    5.5840 C.ar    1  UNL1       -0.0015
     22 C          60.3731   91.3585    4.4471 C.ar    1  UNL1        0.0293
     23 C          59.0222   91.8726    4.0462 C.ar    1  UNL1        0.1401
     24 F          58.8961   92.8430    2.9092 F       1  UNL1       -0.2042
     25 C          57.7973   91.4165    4.7822 C.ar    1  UNL1        0.0293
     26 C          57.9234   90.4463    5.9191 C.ar    1  UNL1       -0.0015
     27 C          64.6959   89.7135   15.2920 C.3     1  UNL1        0.0692
     28 C          63.5977   89.7859   16.3112 C.2     1  UNL1        0.0548
     29 O          62.9164   88.5308   16.7701 O.co2   1  UNL1       -0.5488
     30 O          63.1807   91.1134   16.8715 O.co2   1  UNL1       -0.5488
@<TRIPOS>UNITY_ATOM_ATTR
29 1
charge -1
@<TRIPOS>BOND
     1    19    18    1
     2    19    14    1
     3    14    15    2
     4    14    16   am
     5    16    17    1
     6     1    16    1
     7     1     2    1
     8     2     3    1
     9     3     4    1
    10     4     5   ar
    11     5    27    1
    12    27    28    1
    13    28    29   ar
    14    28    30   ar
    15     5     6   ar
    16     6     7   ar
    17     7     8   ar
    18     8     9   ar
    19     9    10   ar
    20    10    11   ar
    21    11    12   ar
    22    12    13    1
    23    19    20    1
    24    20    21   ar
    25    21    22   ar
    26    22    23   ar
    27    23    24    1
    28    23    25   ar
    29    25    26   ar
    30    13     1    1
    31    26    20   ar
    32    12     4   ar
    33    11     6   ar
