@<TRIPOS>MOLECULE
*****
 14 15 0 0 0
SMALL
GASTEIGER

@<TRIPOS>ATOM
      1 C          65.3889   91.4215   14.5224 C.ar    1  UNL1        0.0641
      2 C          66.8359   91.4447   14.9170 C.ar    1  UNL1        0.0099
      3 C          67.6229   91.9865   13.7606 C.ar    1  UNL1        0.0071
      4 C          66.6623   92.2981   12.6515 C.ar    1  UNL1        0.0310
      5 S          65.2816   91.9489   13.1223 S.2     1  UNL1       -0.0840
      6 C          67.0197   92.8602   11.3075 C.ar    1  UNL1        0.0252
      7 C          67.9945   92.1363   10.4269 C.ar    1  UNL1        0.0036
      8 C          68.3519   92.6984    9.0829 C.ar    1  UNL1        0.0207
      9 C          67.7344   93.9845    8.6196 C.ar    1  UNL1        0.0989
     10 N          66.7596   94.7085    9.5002 N.ar    1  UNL1       -0.2423
     11 C          66.4022   94.1463   10.8442 C.ar    1  UNL1        0.0993
     12 C          63.7103   89.5629   15.2139 C.3     1  UNL1        0.0778
     13 C          64.2492   90.9531   15.3779 C.2     1  UNL1        0.1794
     14 O          63.6484   91.8748   16.3974 O.2     1  UNL1       -0.2908
@<TRIPOS>BOND
     1    12    13    1
     2    13    14    2
     3    13     1    1
     4     1     2   ar
     5     2     3   ar
     6     3     4   ar
     7     4     6    1
     8     6     7   ar
     9     7     8   ar
    10     8     9   ar
    11     9    10   ar
    12    10    11   ar
    13     4     5   ar
    14     5     1   ar
    15    11     6   ar
@<TRIPOS>MOLECULE
*****
 14 15 0 0 0
SMALL
GASTEIGER

@<TRIPOS>ATOM
      1 C          64.1875   91.0536   13.1210 C.ar    1  UNL1        0.0641
      2 C          63.3930   90.7937   11.8754 C.ar    1  UNL1        0.0099
      3 C          63.9825   91.6177   10.7693 C.ar    1  UNL1        0.0071
      4 C          65.1413   92.3868   11.3312 C.ar    1  UNL1        0.0310
      5 S          65.2680   92.0381   12.7846 S.2     1  UNL1       -0.0840
      6 C          66.0193   93.3376   10.5728 C.ar    1  UNL1        0.0252
      7 C          67.2570   92.8342    9.8912 C.ar    1  UNL1        0.0036
      8 C          68.1349   93.7851    9.1328 C.ar    1  UNL1        0.0207
      9 C          67.7751   95.2392    9.0561 C.ar    1  UNL1        0.0989
     10 N          66.5374   95.7426    9.7377 N.ar    1  UNL1       -0.2423
     11 C          65.6595   94.7918   10.4961 C.ar    1  UNL1        0.0993
     12 C          64.1913   88.9726   14.6764 C.3     1  UNL1        0.0778
     13 C          63.9441   90.4371   14.4666 C.2     1  UNL1        0.1794
     14 O          63.4536   91.2851   15.6025 O.2     1  UNL1       -0.2908
@<TRIPOS>BOND
     1    12    13    1
     2    13    14    2
     3    13     1    1
     4     1     2   ar
     5     2     3   ar
     6     3     4   ar
     7     4     6    1
     8     6     7   ar
     9     7     8   ar
    10     8     9   ar
    11     9    10   ar
    12    10    11   ar
    13     4     5   ar
    14     5     1   ar
    15    11     6   ar
@<TRIPOS>MOLECULE
*****
 14 15 0 0 0
SMALL
GASTEIGER

@<TRIPOS>ATOM
      1 C          63.4146   83.6763   11.5132 C.ar    1  UNL1        0.0641
      2 C          63.9416   83.4554   10.1262 C.ar    1  UNL1        0.0099
      3 C          63.3373   84.4952    9.2298 C.ar    1  UNL1        0.0071
      4 C          62.4368   85.3586   10.0626 C.ar    1  UNL1        0.0310
      5 S          62.4846   84.8525   11.4738 S.2     1  UNL1       -0.0840
      6 C          61.6302   86.5237    9.5705 C.ar    1  UNL1        0.0252
      7 C          60.4657   86.2956    8.6530 C.ar    1  UNL1        0.0036
      8 C          59.6592   87.4606    8.1610 C.ar    1  UNL1        0.0207
      9 C          60.0171   88.8537    8.5864 C.ar    1  UNL1        0.0989
     10 N          61.1816   89.0819    9.5039 N.ar    1  UNL1       -0.2423
     11 C          61.9882   87.9168    9.9960 C.ar    1  UNL1        0.0993
     12 C          63.3499   81.4220   12.8031 C.3     1  UNL1        0.0778
     13 C          63.7573   82.8635   12.7264 C.2     1  UNL1        0.1794
     14 O          64.5075   83.4924   13.8630 O.2     1  UNL1       -0.2908
@<TRIPOS>BOND
     1    12    13    1
     2    13    14    2
     3    13     1    1
     4     1     2   ar
     5     2     3   ar
     6     3     4   ar
     7     4     6    1
     8     6     7   ar
     9     7     8   ar
    10     8     9   ar
    11     9    10   ar
    12    10    11   ar
    13     4     5   ar
    14     5     1   ar
    15    11     6   ar
@<TRIPOS>MOLECULE
*****
 14 15 0 0 0
SMALL
GASTEIGER

@<TRIPOS>ATOM
      1 C          63.4283   90.1289   12.3782 C.ar    1  UNL1        0.0641
      2 C          63.4961   91.1614   11.2921 C.ar    1  UNL1        0.0099
      3 C          62.7519   90.6319   10.1022 C.ar    1  UNL1        0.0071
      4 C          62.2242   89.2723   10.4529 C.ar    1  UNL1        0.0310
      5 S          62.6422   88.9614   11.8595 S.2     1  UNL1       -0.0840
      6 C          61.4197   88.3801    9.5545 C.ar    1  UNL1        0.0252
      7 C          61.8590   86.9664    9.3128 C.ar    1  UNL1        0.0036
      8 C          61.0545   86.0744    8.4145 C.ar    1  UNL1        0.0207
      9 C          59.8107   86.5960    7.7580 C.ar    1  UNL1        0.0989
     10 N          59.3714   88.0096    7.9998 N.ar    1  UNL1       -0.2423
     11 C          60.1759   88.9017    8.8981 C.ar    1  UNL1        0.0993
     12 C          64.3569   89.0065   14.5294 C.3     1  UNL1        0.0778
     13 C          64.0393   90.2439   13.7433 C.2     1  UNL1        0.1794
     14 O          64.3326   91.5962   14.3223 O.2     1  UNL1       -0.2908
@<TRIPOS>BOND
     1    12    13    1
     2    13    14    2
     3    13     1    1
     4     1     2   ar
     5     2     3   ar
     6     3     4   ar
     7     4     6    1
     8     6     7   ar
     9     7     8   ar
    10     8     9   ar
    11     9    10   ar
    12    10    11   ar
    13     4     5   ar
    14     5     1   ar
    15    11     6   ar
@<TRIPOS>MOLECULE
*****
 14 15 0 0 0
SMALL
GASTEIGER

@<TRIPOS>ATOM
      1 C          61.3436   86.4466    9.2084 C.ar    1  UNL1        0.0641
      2 C          62.4119   85.7136    8.4524 C.ar    1  UNL1        0.0099
      3 C          63.1384   84.8266    9.4194 C.ar    1  UNL1        0.0071
      4 C          62.5192   85.0113   10.7731 C.ar    1  UNL1        0.0310
      5 S          61.4100   86.0125   10.6427 S.2     1  UNL1       -0.0840
      6 C          62.9361   84.3166   12.0356 C.ar    1  UNL1        0.0252
      7 C          62.8054   82.8268   12.1501 C.ar    1  UNL1        0.0036
      8 C          63.2223   82.1322   13.4125 C.ar    1  UNL1        0.0207
      9 C          63.7699   82.9276   14.5604 C.ar    1  UNL1        0.0989
     10 N          63.9005   84.4174   14.4459 N.ar    1  UNL1       -0.2423
     11 C          63.4837   85.1120   13.1835 C.ar    1  UNL1        0.0993
     12 C          59.2359   86.9679    7.7816 C.3     1  UNL1        0.0778
     13 C          60.3784   87.4394    8.6315 C.2     1  UNL1        0.1794
     14 O          60.5558   88.9037    8.9044 O.2     1  UNL1       -0.2908
@<TRIPOS>BOND
     1    12    13    1
     2    13    14    2
     3    13     1    1
     4     1     2   ar
     5     2     3   ar
     6     3     4   ar
     7     4     6    1
     8     6     7   ar
     9     7     8   ar
    10     8     9   ar
    11     9    10   ar
    12    10    11   ar
    13     4     5   ar
    14     5     1   ar
    15    11     6   ar
@<TRIPOS>MOLECULE
*****
 14 15 0 0 0
SMALL
GASTEIGER

@<TRIPOS>ATOM
      1 C          60.5816   87.3786    9.1685 C.ar    1  UNL1        0.0641
      2 C          61.2951   88.2938   10.1191 C.ar    1  UNL1        0.0099
      3 C          62.2277   87.4633   10.9501 C.ar    1  UNL1        0.0071
      4 C          62.0906   86.0349   10.5131 C.ar    1  UNL1        0.0310
      5 S          61.0733   85.9826    9.4121 S.2     1  UNL1       -0.0840
      6 C          62.8395   84.8643   11.0781 C.ar    1  UNL1        0.0252
      7 C          63.5703   83.9285   10.1616 C.ar    1  UNL1        0.0036
      8 C          64.3191   82.7580   10.7265 C.ar    1  UNL1        0.0207
      9 C          64.3370   82.5234   12.2080 C.ar    1  UNL1        0.0989
     10 N          63.6062   83.4592   13.1244 N.ar    1  UNL1       -0.2423
     11 C          62.8574   84.6297   12.5595 C.ar    1  UNL1        0.0993
     12 C          59.6696   89.1166    7.4663 C.3     1  UNL1        0.0778
     13 C          59.5565   87.7877    8.1528 C.2     1  UNL1        0.1794
     14 O          58.4183   86.8679    7.8235 O.2     1  UNL1       -0.2908
@<TRIPOS>BOND
     1    12    13    1
     2    13    14    2
     3    13     1    1
     4     1     2   ar
     5     2     3   ar
     6     3     4   ar
     7     4     6    1
     8     6     7   ar
     9     7     8   ar
    10     8     9   ar
    11     9    10   ar
    12    10    11   ar
    13     4     5   ar
    14     5     1   ar
    15    11     6   ar
@<TRIPOS>MOLECULE
*****
 14 15 0 0 0
SMALL
GASTEIGER

@<TRIPOS>ATOM
      1 C          61.0324   86.5667    9.2537 C.ar    1  UNL1        0.0641
      2 C          62.0949   85.8780    8.4495 C.ar    1  UNL1        0.0099
      3 C          62.9397   85.0722    9.3912 C.ar    1  UNL1        0.0071
      4 C          62.3993   85.2629   10.7775 C.ar    1  UNL1        0.0310
      5 S          61.2205   86.1865   10.6925 S.2     1  UNL1       -0.0840
      6 C          62.9425   84.6393   12.0290 C.ar    1  UNL1        0.0252
      7 C          63.5120   85.5061   13.1126 C.ar    1  UNL1        0.0036
      8 C          64.0551   84.8825   14.3641 C.ar    1  UNL1        0.0207
      9 C          64.0286   83.3922   14.5319 C.ar    1  UNL1        0.0989
     10 N          63.4591   82.5254   13.4483 N.ar    1  UNL1       -0.2423
     11 C          62.9160   83.1490   12.1969 C.ar    1  UNL1        0.0993
     12 C          60.1577   88.9632    8.7619 C.3     1  UNL1        0.0778
     13 C          59.9685   87.4760    8.7139 C.2     1  UNL1        0.1794
     14 O          58.7153   86.8980    8.1261 O.2     1  UNL1       -0.2908
@<TRIPOS>BOND
     1    12    13    1
     2    13    14    2
     3    13     1    1
     4     1     2   ar
     5     2     3   ar
     6     3     4   ar
     7     4     6    1
     8     6     7   ar
     9     7     8   ar
    10     8     9   ar
    11     9    10   ar
    12    10    11   ar
    13     4     5   ar
    14     5     1   ar
    15    11     6   ar
@<TRIPOS>MOLECULE
*****
 14 15 0 0 0
SMALL
GASTEIGER

@<TRIPOS>ATOM
      1 C          62.3346   89.2047   11.1592 C.ar    1  UNL1        0.0641
      2 C          62.4837   90.2367   10.0808 C.ar    1  UNL1        0.0099
      3 C          63.4253   91.2934   10.5775 C.ar    1  UNL1        0.0071
      4 C          63.8581   90.9146   11.9629 C.ar    1  UNL1        0.0310
      5 S          63.1841   89.6237   12.3223 S.2     1  UNL1       -0.0840
      6 C          64.7998   91.6904   12.8355 C.ar    1  UNL1        0.0252
      7 C          65.0459   91.2522   14.2488 C.ar    1  UNL1        0.0036
      8 C          65.9875   92.0280   15.1213 C.ar    1  UNL1        0.0207
      9 C          66.6830   93.2421   14.5806 C.ar    1  UNL1        0.0989
     10 N          66.4368   93.6803   13.1674 N.ar    1  UNL1       -0.2423
     11 C          65.4952   92.9045   12.2948 C.ar    1  UNL1        0.0993
     12 C          62.0191   86.7297   10.4350 C.3     1  UNL1        0.0778
     13 C          61.4852   87.9705   11.0870 C.2     1  UNL1        0.1794
     14 O          60.1018   87.9771   11.6669 O.2     1  UNL1       -0.2908
@<TRIPOS>BOND
     1    12    13    1
     2    13    14    2
     3    13     1    1
     4     1     2   ar
     5     2     3   ar
     6     3     4   ar
     7     4     6    1
     8     6     7   ar
     9     7     8   ar
    10     8     9   ar
    11     9    10   ar
    12    10    11   ar
    13     4     5   ar
    14     5     1   ar
    15    11     6   ar
@<TRIPOS>MOLECULE
*****
 14 15 0 0 0
SMALL
GASTEIGER

@<TRIPOS>ATOM
      1 C          65.2918   92.1836   12.7752 C.ar    1  UNL1        0.0641
      2 C          65.2812   92.6354   11.3449 C.ar    1  UNL1        0.0099
      3 C          64.2262   91.8537   10.6197 C.ar    1  UNL1        0.0071
      4 C          63.5848   90.9188   11.6019 C.ar    1  UNL1        0.0310
      5 S          64.2434   91.1227   12.9340 S.2     1  UNL1       -0.0840
      6 C          62.4789   89.9500   11.3041 C.ar    1  UNL1        0.0252
      7 C          61.2306   90.4238   10.6206 C.ar    1  UNL1        0.0036
      8 C          60.1248   89.4550   10.3228 C.ar    1  UNL1        0.0207
      9 C          60.2674   88.0125   10.7086 C.ar    1  UNL1        0.0989
     10 N          61.5156   87.5387   11.3921 N.ar    1  UNL1       -0.2423
     11 C          62.6214   88.5075   11.6898 C.ar    1  UNL1        0.0993
     12 C          66.9940   91.7443   14.6883 C.3     1  UNL1        0.0778
     13 C          66.1928   92.7018   13.8569 C.2     1  UNL1        0.1794
     14 O          66.2924   94.1774   14.1071 O.2     1  UNL1       -0.2908
@<TRIPOS>BOND
     1    12    13    1
     2    13    14    2
     3    13     1    1
     4     1     2   ar
     5     2     3   ar
     6     3     4   ar
     7     4     6    1
     8     6     7   ar
     9     7     8   ar
    10     8     9   ar
    11     9    10   ar
    12    10    11   ar
    13     4     5   ar
    14     5     1   ar
    15    11     6   ar
