@<TRIPOS>MOLECULE
*****
 36 39 0 0 0
SMALL
GASTEIGER

@<TRIPOS>ATOM
      1 C          63.1634   88.9170   12.5825 C.2     1  UNL1        0.0732
      2 C          64.0757   88.5903   13.7276 C.2     1  UNL1        0.1887
      3 O          64.7245   89.5809   14.6483 O.2     1  UNL1       -0.5020
      4 C          64.2251   87.0991   13.7903 C.2     1  UNL1        0.2869
      5 O          65.0497   86.3367   14.7847 O.2     1  UNL1       -0.2662
      6 N          63.4053   86.5041   12.6839 N.am    1  UNL1       -0.2463
      7 C          62.7491   87.6277   11.9375 C.3     1  UNL1        0.1338
      8 H          64.5722   90.4981   14.5321 H       1  UNL1        0.2924
      9 C          63.2660   85.0423   12.3778 C.ar    1  UNL1        0.0548
     10 C          63.6997   84.5107   11.0439 C.ar    1  UNL1        0.0149
     11 C          63.5605   83.0489   10.7379 C.ar    1  UNL1        0.0013
     12 C          62.9875   82.1187   11.7657 C.ar    1  UNL1        0.0006
     13 C          62.5538   82.6503   13.0995 C.ar    1  UNL1        0.0013
     14 C          62.6931   84.1121   13.4056 C.ar    1  UNL1        0.0149
     15 C          62.8483   80.6568   11.4595 C.ar    1  UNL1        0.0070
     16 C          62.5362   79.5744   12.4500 C.ar    1  UNL1        0.0075
     17 C          62.4917   78.2694   11.7119 C.ar    1  UNL1        0.0355
     18 S          62.7763   78.5453   10.2652 S.2     1  UNL1       -0.0859
     19 C          62.9966   80.0207   10.1092 C.ar    1  UNL1        0.0354
     20 C          61.8385   87.4867   10.7539 C.ar    1  UNL1        0.0344
     21 C          62.3742   86.9660    9.4533 C.ar    1  UNL1        0.0007
     22 C          61.4636   86.8250    8.2697 C.ar    1  UNL1       -0.0001
     23 C          60.0172   87.2048    8.3868 C.ar    1  UNL1        0.0031
     24 C          59.4815   87.7255    9.6875 C.ar    1  UNL1        0.0366
     25 C          60.3921   87.8665   10.8711 C.ar    1  UNL1        0.1365
     26 O          59.8563   88.3872   12.1717 O.3     1  UNL1       -0.4730
     27 C          58.4756   88.9701   12.2346 C.3     1  UNL1        0.2370
     28 C          57.5614   88.6122   13.3686 C.3     1  UNL1        0.1847
     29 O          56.1244   88.2783   13.0968 O.3     1  UNL1       -0.3784
     30 H          55.6672   89.0655   12.7620 H       1  UNL1        0.2106
     31 C          62.7399   90.2916   12.1571 C.2     1  UNL1        0.1732
     32 O          61.3601   90.7844   12.4786 O.2     1  UNL1       -0.2915
     33 C          63.0750   90.7485   10.1129 C.3     1  UNL1        0.0077
     34 C          63.6962   91.1736   11.4104 C.3     1  UNL1        0.0554
     35 C          64.3174   91.5987   12.7078 C.3     1  UNL1        0.0077
     36 C          64.6524   92.0555   10.6636 C.3     1  UNL1        0.0077
@<TRIPOS>BOND
     1    33    34    1
     2    34    35    1
     3    34    36    1
     4    34    31    1
     5    31    32    2
     6    31     1    1
     7     1     2    2
     8     2     3    1
     9     2     4    1
    10     4     5    2
    11     4     6   am
    12     6     9    1
    13     9    10   ar
    14    10    11   ar
    15    11    12   ar
    16    12    15    1
    17    15    16   ar
    18    16    17   ar
    19    17    18   ar
    20    18    19   ar
    21    12    13   ar
    22    13    14   ar
    23     6     7    1
    24     7    20    1
    25    20    21   ar
    26    21    22   ar
    27    22    23   ar
    28    23    24   ar
    29    24    25   ar
    30    25    26    1
    31    26    27    1
    32    27    28    1
    33    28    29    1
    34     7     1    1
    35    25    20   ar
    36    14     9   ar
    37    19    15   ar
    38     3     8    1
    39    29    30    1
@<TRIPOS>MOLECULE
*****
 36 39 0 0 0
SMALL
GASTEIGER

@<TRIPOS>ATOM
      1 C          62.5894   83.6452   13.5848 C.2     1  UNL1        0.0732
      2 C          62.7844   83.8909   15.0516 C.2     1  UNL1        0.1887
      3 O          62.5585   82.8948   16.1502 O.2     1  UNL1       -0.5020
      4 C          63.2449   85.3076   15.2270 C.2     1  UNL1        0.2869
      5 O          63.5605   85.9770   16.5317 O.2     1  UNL1       -0.2662
      6 N          63.3345   85.9375   13.8686 N.am    1  UNL1       -0.2463
      7 C          62.9294   84.9100   12.8536 C.3     1  UNL1        0.1338
      8 H          62.2688   82.0279   15.9442 H       1  UNL1        0.2924
      9 C          63.7554   87.3473   13.5764 C.ar    1  UNL1        0.0548
     10 C          63.3114   88.0152   12.3089 C.ar    1  UNL1        0.0149
     11 C          63.7323   89.4250   12.0168 C.ar    1  UNL1        0.0013
     12 C          64.5972   90.1668   12.9922 C.ar    1  UNL1        0.0006
     13 C          65.0413   89.4989   14.2598 C.ar    1  UNL1        0.0013
     14 C          64.6204   88.0892   14.5519 C.ar    1  UNL1        0.0149
     15 C          65.0181   91.5767   12.7001 C.ar    1  UNL1        0.0070
     16 C          64.7796   92.3206   11.4196 C.ar    1  UNL1        0.0075
     17 C          65.3654   93.6938   11.5652 C.ar    1  UNL1        0.0355
     18 S          65.9661   93.7984   12.9357 S.2     1  UNL1       -0.0859
     19 C          65.7515   92.4900   13.6371 C.ar    1  UNL1        0.0354
     20 C          62.8739   85.1119   11.3683 C.ar    1  UNL1        0.0344
     21 C          63.8393   84.3890   10.4765 C.ar    1  UNL1        0.0007
     22 C          63.7839   84.5909    8.9912 C.ar    1  UNL1       -0.0001
     23 C          62.7630   85.5157    8.3977 C.ar    1  UNL1        0.0031
     24 C          61.7975   86.2387    9.2895 C.ar    1  UNL1        0.0366
     25 C          61.8529   86.0368   10.7748 C.ar    1  UNL1        0.1365
     26 O          60.8875   86.7597   11.6665 O.3     1  UNL1       -0.4730
     27 C          60.0475   87.8737   11.1155 C.3     1  UNL1        0.2370
     28 C          59.5274   88.9434   12.0293 C.3     1  UNL1        0.1847
     29 O          58.5993   88.5849   13.1519 O.3     1  UNL1       -0.3784
     30 H          57.7607   88.2612   12.7873 H       1  UNL1        0.2106
     31 C          62.1342   82.3601   12.9589 C.2     1  UNL1        0.1732
     32 O          61.3991   82.3817   11.6516 O.2     1  UNL1       -0.2915
     33 C          63.8675   81.1836   13.2926 C.3     1  UNL1        0.0077
     34 C          62.4142   81.0536   13.6405 C.3     1  UNL1        0.0554
     35 C          60.9609   80.9236   13.9883 C.3     1  UNL1        0.0077
     36 C          62.6942   79.7470   14.3220 C.3     1  UNL1        0.0077
@<TRIPOS>BOND
     1    33    34    1
     2    34    35    1
     3    34    36    1
     4    34    31    1
     5    31    32    2
     6    31     1    1
     7     1     2    2
     8     2     3    1
     9     2     4    1
    10     4     5    2
    11     4     6   am
    12     6     9    1
    13     9    10   ar
    14    10    11   ar
    15    11    12   ar
    16    12    15    1
    17    15    16   ar
    18    16    17   ar
    19    17    18   ar
    20    18    19   ar
    21    12    13   ar
    22    13    14   ar
    23     6     7    1
    24     7    20    1
    25    20    21   ar
    26    21    22   ar
    27    22    23   ar
    28    23    24   ar
    29    24    25   ar
    30    25    26    1
    31    26    27    1
    32    27    28    1
    33    28    29    1
    34     7     1    1
    35    25    20   ar
    36    14     9   ar
    37    19    15   ar
    38     3     8    1
    39    29    30    1
@<TRIPOS>MOLECULE
*****
 36 39 0 0 0
SMALL
GASTEIGER

@<TRIPOS>ATOM
      1 C          60.0067   94.9770   -5.4980 C.2     1  UNL1        0.0732
      2 C          58.6136   94.4207   -5.5003 C.2     1  UNL1        0.1887
      3 O          57.6594   94.4378   -6.6575 O.2     1  UNL1       -0.5020
      4 C          58.3424   93.8443   -4.1423 C.2     1  UNL1        0.2869
      5 O          57.0693   93.1839   -3.7031 O.2     1  UNL1       -0.2662
      6 N          59.5679   94.0444   -3.3007 N.am    1  UNL1       -0.2463
      7 C          60.5964   94.7444   -4.1385 C.3     1  UNL1        0.1338
      8 H          57.9178   94.8219   -7.4722 H       1  UNL1        0.2924
      9 C          59.7353   93.6190   -1.8720 C.ar    1  UNL1        0.0548
     10 C          60.9972   92.9353   -1.4359 C.ar    1  UNL1        0.0149
     11 C          61.1645   92.5100   -0.0073 C.ar    1  UNL1        0.0013
     12 C          60.0700   92.7684    0.9853 C.ar    1  UNL1        0.0006
     13 C          58.8081   93.4521    0.5493 C.ar    1  UNL1        0.0013
     14 C          58.6408   93.8774   -0.8794 C.ar    1  UNL1        0.0149
     15 C          60.2374   92.3431    2.4140 C.ar    1  UNL1        0.0070
     16 C          61.5021   91.8347    3.0402 C.ar    1  UNL1        0.0075
     17 C          61.2159   91.5289    4.4805 C.ar    1  UNL1        0.0355
     18 S          59.7742   91.8482    4.7445 S.2     1  UNL1       -0.0859
     19 C          59.1695   92.3514    3.4674 C.ar    1  UNL1        0.0354
     20 C          61.9730   95.1420   -3.6948 C.ar    1  UNL1        0.0344
     21 C          62.1888   96.4575   -3.0072 C.ar    1  UNL1        0.0007
     22 C          63.5654   96.8551   -2.5636 C.ar    1  UNL1       -0.0001
     23 C          64.7263   95.9372   -2.8075 C.ar    1  UNL1        0.0031
     24 C          64.5106   94.6216   -3.4952 C.ar    1  UNL1        0.0366
     25 C          63.1340   94.2240   -3.9388 C.ar    1  UNL1        0.1365
     26 O          62.9184   92.9085   -4.6264 O.3     1  UNL1       -0.4730
     27 C          64.0765   91.9830   -4.8551 C.3     1  UNL1        0.2370
     28 C          64.7746   91.9690   -6.1826 C.3     1  UNL1        0.1847
     29 O          66.1399   92.5753   -6.3184 O.3     1  UNL1       -0.3784
     30 H          66.0842   93.5330   -6.1745 H       1  UNL1        0.2106
     31 C          60.6901   95.6481   -6.6524 C.2     1  UNL1        0.1732
     32 O          59.9988   96.7540   -7.3933 O.2     1  UNL1       -0.2915
     33 C          62.6146   96.5401   -6.6339 C.3     1  UNL1        0.0077
     34 C          62.0648   95.2131   -7.0660 C.3     1  UNL1        0.0554
     35 C          61.5149   93.8862   -7.4981 C.3     1  UNL1        0.0077
     36 C          63.4395   94.7782   -7.4796 C.3     1  UNL1        0.0077
@<TRIPOS>BOND
     1    33    34    1
     2    34    35    1
     3    34    36    1
     4    34    31    1
     5    31    32    2
     6    31     1    1
     7     1     2    2
     8     2     3    1
     9     2     4    1
    10     4     5    2
    11     4     6   am
    12     6     9    1
    13     9    10   ar
    14    10    11   ar
    15    11    12   ar
    16    12    15    1
    17    15    16   ar
    18    16    17   ar
    19    17    18   ar
    20    18    19   ar
    21    12    13   ar
    22    13    14   ar
    23     6     7    1
    24     7    20    1
    25    20    21   ar
    26    21    22   ar
    27    22    23   ar
    28    23    24   ar
    29    24    25   ar
    30    25    26    1
    31    26    27    1
    32    27    28    1
    33    28    29    1
    34     7     1    1
    35    25    20   ar
    36    14     9   ar
    37    19    15   ar
    38     3     8    1
    39    29    30    1
@<TRIPOS>MOLECULE
*****
 36 39 0 0 0
SMALL
GASTEIGER

@<TRIPOS>ATOM
      1 C          61.9904   88.6089   10.9684 C.2     1  UNL1        0.0732
      2 C          61.9492   89.7985   10.0556 C.2     1  UNL1        0.1887
      3 O          61.0637   89.9587    8.8555 O.2     1  UNL1       -0.5020
      4 C          62.9490   90.7997   10.5536 C.2     1  UNL1        0.2869
      5 O          63.2387   92.1369    9.9389 O.2     1  UNL1       -0.2662
      6 N          63.6081   90.2289   11.7742 N.am    1  UNL1       -0.2463
      7 C          63.0157   88.8749   12.0306 C.3     1  UNL1        0.1338
      8 H          60.4666   89.2763    8.6194 H       1  UNL1        0.2924
      9 C          64.6727   90.8952   12.5944 C.ar    1  UNL1        0.0548
     10 C          65.1213   92.2855   12.2543 C.ar    1  UNL1        0.0149
     11 C          66.1859   92.9517   13.0745 C.ar    1  UNL1        0.0013
     12 C          66.8019   92.2276   14.2348 C.ar    1  UNL1        0.0006
     13 C          66.3533   90.8373   14.5749 C.ar    1  UNL1        0.0013
     14 C          65.2887   90.1711   13.7547 C.ar    1  UNL1        0.0149
     15 C          67.8666   92.8939   15.0550 C.ar    1  UNL1        0.0070
     16 C          68.9708   92.2010   15.7969 C.ar    1  UNL1        0.0075
     17 C          69.8006   93.2488   16.4777 C.ar    1  UNL1        0.0355
     18 S          69.2091   94.5894   16.1565 S.2     1  UNL1       -0.0859
     19 C          68.0138   94.3700   15.2772 C.ar    1  UNL1        0.0354
     20 C          63.3838   87.9494   13.1521 C.ar    1  UNL1        0.0344
     21 C          63.8757   86.5648   12.8512 C.ar    1  UNL1        0.0007
     22 C          64.2439   85.6393   13.9727 C.ar    1  UNL1       -0.0001
     23 C          64.1201   86.0985   15.3953 C.ar    1  UNL1        0.0031
     24 C          63.6282   87.4832   15.6963 C.ar    1  UNL1        0.0366
     25 C          63.2601   88.4087   14.5747 C.ar    1  UNL1        0.1365
     26 O          62.7682   89.7934   14.8757 O.3     1  UNL1       -0.4730
     27 C          62.8124   90.3161   16.2811 C.3     1  UNL1        0.2370
     28 C          63.8888   91.2771   16.6903 C.3     1  UNL1        0.1847
     29 O          63.5803   92.7397   16.8162 O.3     1  UNL1       -0.3784
     30 H          63.3639   93.1009   15.9424 H       1  UNL1        0.2106
     31 C          61.1534   87.3707   10.8414 C.2     1  UNL1        0.1732
     32 O          60.4886   86.7872   12.0529 O.2     1  UNL1       -0.2915
     33 C          59.5756   87.2347    9.4300 C.3     1  UNL1        0.0077
     34 C          60.9811   86.7159    9.5029 C.3     1  UNL1        0.0554
     35 C          62.3866   86.1971    9.5759 C.3     1  UNL1        0.0077
     36 C          60.8088   86.0611    8.1645 C.3     1  UNL1        0.0077
@<TRIPOS>BOND
     1    33    34    1
     2    34    35    1
     3    34    36    1
     4    34    31    1
     5    31    32    2
     6    31     1    1
     7     1     2    2
     8     2     3    1
     9     2     4    1
    10     4     5    2
    11     4     6   am
    12     6     9    1
    13     9    10   ar
    14    10    11   ar
    15    11    12   ar
    16    12    15    1
    17    15    16   ar
    18    16    17   ar
    19    17    18   ar
    20    18    19   ar
    21    12    13   ar
    22    13    14   ar
    23     6     7    1
    24     7    20    1
    25    20    21   ar
    26    21    22   ar
    27    22    23   ar
    28    23    24   ar
    29    24    25   ar
    30    25    26    1
    31    26    27    1
    32    27    28    1
    33    28    29    1
    34     7     1    1
    35    25    20   ar
    36    14     9   ar
    37    19    15   ar
    38     3     8    1
    39    29    30    1
@<TRIPOS>MOLECULE
*****
 36 39 0 0 0
SMALL
GASTEIGER

@<TRIPOS>ATOM
      1 C          61.5328   94.8438   -4.0734 C.2     1  UNL1        0.0732
      2 C          60.3036   94.1030   -4.5100 C.2     1  UNL1        0.1887
      3 O          59.7550   94.0502   -5.9050 O.2     1  UNL1       -0.5020
      4 C          59.7195   93.4244   -3.3065 C.2     1  UNL1        0.2869
      5 O          58.4841   92.5739   -3.2869 O.2     1  UNL1       -0.2662
      6 N          60.5875   93.7458   -2.1262 N.am    1  UNL1       -0.2463
      7 C          61.7082   94.6230   -2.6001 C.3     1  UNL1        0.1338
      8 H          60.1899   94.5082   -6.5972 H       1  UNL1        0.2924
      9 C          60.3726   93.2729   -0.7189 C.ar    1  UNL1        0.0548
     10 C          58.9850   93.2088   -0.1529 C.ar    1  UNL1        0.0149
     11 C          58.7702   92.7359    1.2542 C.ar    1  UNL1        0.0013
     12 C          59.9429   92.3272    2.0954 C.ar    1  UNL1        0.0006
     13 C          61.3305   92.3914    1.5294 C.ar    1  UNL1        0.0013
     14 C          61.5454   92.8642    0.1223 C.ar    1  UNL1        0.0149
     15 C          59.7280   91.8544    3.5027 C.ar    1  UNL1        0.0070
     16 C          60.7785   91.2922    4.4140 C.ar    1  UNL1        0.0075
     17 C          60.1247   90.9511    5.7202 C.ar    1  UNL1        0.0355
     18 S          58.6700   91.3023    5.6161 S.2     1  UNL1       -0.0859
     19 C          58.4249   91.8606    4.2456 C.ar    1  UNL1        0.0354
     20 C          62.8107   95.1814   -1.7501 C.ar    1  UNL1        0.0344
     21 C          64.1990   94.6244   -1.8612 C.ar    1  UNL1        0.0007
     22 C          65.3015   95.1827   -1.0112 C.ar    1  UNL1       -0.0001
     23 C          65.0158   96.2982   -0.0499 C.ar    1  UNL1        0.0031
     24 C          63.6275   96.8553    0.0612 C.ar    1  UNL1        0.0366
     25 C          62.5249   96.2969   -0.7888 C.ar    1  UNL1        0.1365
     26 O          61.1368   96.8540   -0.6776 O.3     1  UNL1       -0.4730
     27 C          60.2102   96.3515    0.3897 C.3     1  UNL1        0.2370
     28 C          60.6528   96.3403    1.8228 C.3     1  UNL1        0.1847
     29 O          59.6538   96.5690    2.9182 O.3     1  UNL1       -0.3784
     30 H          59.3129   97.4753    2.8607 H       1  UNL1        0.2106
     31 C          62.4291   95.6617   -4.9552 C.2     1  UNL1        0.1732
     32 O          61.8813   96.8544   -5.6815 O.2     1  UNL1       -0.2915
     33 C          64.2768   96.6713   -4.6978 C.3     1  UNL1        0.0077
     34 C          63.8731   95.2870   -5.1108 C.3     1  UNL1        0.0554
     35 C          63.4694   93.9027   -5.5238 C.3     1  UNL1        0.0077
     36 C          65.3172   94.9123   -5.2663 C.3     1  UNL1        0.0077
@<TRIPOS>BOND
     1    33    34    1
     2    34    35    1
     3    34    36    1
     4    34    31    1
     5    31    32    2
     6    31     1    1
     7     1     2    2
     8     2     3    1
     9     2     4    1
    10     4     5    2
    11     4     6   am
    12     6     9    1
    13     9    10   ar
    14    10    11   ar
    15    11    12   ar
    16    12    15    1
    17    15    16   ar
    18    16    17   ar
    19    17    18   ar
    20    18    19   ar
    21    12    13   ar
    22    13    14   ar
    23     6     7    1
    24     7    20    1
    25    20    21   ar
    26    21    22   ar
    27    22    23   ar
    28    23    24   ar
    29    24    25   ar
    30    25    26    1
    31    26    27    1
    32    27    28    1
    33    28    29    1
    34     7     1    1
    35    25    20   ar
    36    14     9   ar
    37    19    15   ar
    38     3     8    1
    39    29    30    1
