@<TRIPOS>MOLECULE
*****
 40 44 0 0 0
SMALL
GASTEIGER

@<TRIPOS>ATOM
      1 C          63.3727   89.5856   14.0273 C.3     1  UNL1        0.1532
      2 N          62.7209   89.6662   15.2204 N.3     1  UNL1       -0.3221
      3 C          63.9145   90.5553   15.0352 C.3     1  UNL1        0.0541
      4 C          64.6825   90.5214   13.7472 C.3     1  UNL1        0.0353
      5 C          65.8537   91.4737   13.7194 C.3     1  UNL1        0.0767
      6 C          66.9279   92.4901   13.9699 C.3     1  UNL1        0.0216
      7 C          66.7304   93.0428   15.3503 C.3     1  UNL1        0.0216
      8 C          65.5340   92.3678   15.9530 C.3     1  UNL1        0.0767
      9 C          64.3403   91.4786   16.1381 C.3     1  UNL1        0.0353
     10 N          64.9922   91.3980   14.9451 N.am    1  UNL1       -0.2814
     11 C          63.7985   90.5088   15.1302 C.2     1  UNL1        0.2437
     12 O          63.0306   90.5428   16.4182 O.2     1  UNL1       -0.2731
     13 H          62.5769   89.1103   14.3774 H       1  UNL1        0.1188
     14 H          61.8947   90.2382   15.3957 H       1  UNL1        0.1188
     15 N          62.0427   89.7768   13.3606 N.am    1  UNL1       -0.2978
     16 C          61.9371   89.7133   11.8657 C.2     1  UNL1        0.2256
     17 O          62.9245   89.4838   10.7600 O.2     1  UNL1       -0.2748
     18 H          61.2391   89.9441   13.9042 H       1  UNL1        0.1498
     19 C          60.6071   89.9045   11.1989 C.3     1  UNL1        0.0876
     20 C          59.2772   90.5058   10.8531 C.3     1  UNL1        0.0135
     21 C          60.1453   91.1521   11.8919 C.3     1  UNL1        0.0135
     22 C          60.6072   88.7233   10.2743 C.ar    1  UNL1       -0.0144
     23 C          60.2603   88.9044    8.8262 C.ar    1  UNL1       -0.0007
     24 C          60.2604   87.7232    7.9016 C.ar    1  UNL1        0.0369
     25 C          60.6073   86.3609    8.4252 C.ar    1  UNL1        0.1468
     26 C          60.9541   86.1800    9.8733 C.ar    1  UNL1        0.0369
     27 C          60.9540   87.3611   10.7978 C.ar    1  UNL1       -0.0007
     28 O          60.6073   85.1797    7.5006 O.3     1  UNL1       -0.4045
     29 C          61.8483   84.8259    6.7360 C.3     1  UNL1        0.5753
     30 F          63.0893   84.4720    5.9714 F       1  UNL1       -0.1328
     31 F          61.0210   84.0556    5.7500 F       1  UNL1       -0.1328
     32 F          62.6755   85.5962    7.7221 F       1  UNL1       -0.1328
     33 C          64.2770   88.4711   13.5911 C.3     1  UNL1        0.0553
     34 C          63.8964   87.0461   13.8639 C.ar    1  UNL1       -0.0200
     35 C          64.1509   86.4475   15.2157 C.ar    1  UNL1       -0.0037
     36 C          63.7704   85.0224   15.4885 C.ar    1  UNL1        0.0064
     37 C          63.1353   84.1960   14.4097 C.ar    1  UNL1        0.0345
     38 BR         62.7548   82.7709   14.6826 Br      1  UNL1       -0.0490
     39 C          62.8808   84.7946   13.0581 C.ar    1  UNL1        0.0064
     40 C          63.2614   86.2196   12.7852 C.ar    1  UNL1       -0.0037
@<TRIPOS>BOND
     1     2     3    1
     2     3     4    1
     3     5     4    1
     4     5     6    1
     5     6     7    1
     6     8     7    1
     7     8     9    1
     8     8    10    1
     9    10    11   am
    10    11    12    2
    11    11     1    1
    12     1    33    1
    13    33    34    1
    14    34    35   ar
    15    35    36   ar
    16    36    37   ar
    17    37    38    1
    18    37    39   ar
    19    39    40   ar
    20     1    15    1
    21    15    16   am
    22    16    17    2
    23    16    19    1
    24    19    22    1
    25    22    23   ar
    26    23    24   ar
    27    24    25   ar
    28    25    28    1
    29    28    29    1
    30    29    30    1
    31    29    31    1
    32    29    32    1
    33    25    26   ar
    34    26    27   ar
    35    19    20    1
    36    20    21    1
    37     9     3    1
    38    40    34   ar
    39    21    19    1
    40    10     5    1
    41    27    22   ar
    42     2    13    1
    43     2    14    1
    44    15    18    1
@<TRIPOS>MOLECULE
*****
 40 44 0 0 0
SMALL
GASTEIGER

@<TRIPOS>ATOM
      1 C          63.9777   90.0010   14.7999 C.3     1  UNL1        0.1532
      2 N          63.1768   90.6651   15.6788 N.3     1  UNL1       -0.3221
      3 C          64.5674   91.1948   15.4906 C.3     1  UNL1        0.0541
      4 C          65.5065   90.5151   14.5388 C.3     1  UNL1        0.0353
      5 C          66.8651   91.1693   14.4636 C.3     1  UNL1        0.0767
      6 C          68.1007   92.0102   14.5907 C.3     1  UNL1        0.0216
      7 C          67.8191   93.1009   15.5812 C.3     1  UNL1        0.0216
      8 C          66.4096   92.9341   16.0662 C.3     1  UNL1        0.0767
      9 C          65.0189   92.4043   16.2543 C.3     1  UNL1        0.0353
     10 N          65.8199   91.7403   15.3755 N.am    1  UNL1       -0.2814
     11 C          64.4293   91.2105   15.5636 C.2     1  UNL1        0.2437
     12 O          63.4901   91.8902   16.5155 O.2     1  UNL1       -0.2731
     13 H          63.0420   89.8457   15.0864 H       1  UNL1        0.1188
     14 H          62.5011   91.3849   15.4223 H       1  UNL1        0.1188
     15 N          63.3005   88.8709   15.5169 N.am    1  UNL1       -0.2978
     16 C          63.9180   87.5040   15.5147 C.2     1  UNL1        0.2256
     17 O          65.1660   86.9252   14.9166 O.2     1  UNL1       -0.2748
     18 H          62.4507   89.0263   15.9891 H       1  UNL1        0.1498
     19 C          63.2408   86.3738   16.2318 C.3     1  UNL1        0.0876
     20 C          62.5048   85.6225   17.3012 C.3     1  UNL1        0.0135
     21 C          62.8361   87.0725   17.4958 C.3     1  UNL1        0.0135
     22 C          63.4104   85.2825   15.2166 C.ar    1  UNL1       -0.0144
     23 C          62.5460   85.2574   13.9910 C.ar    1  UNL1       -0.0007
     24 C          62.7156   84.1662   12.9758 C.ar    1  UNL1        0.0369
     25 C          63.7496   83.1001   13.1864 C.ar    1  UNL1        0.1468
     26 C          64.6140   83.1252   14.4120 C.ar    1  UNL1        0.0369
     27 C          64.4444   84.2165   15.4271 C.ar    1  UNL1       -0.0007
     28 O          63.9192   82.0088   12.1713 O.3     1  UNL1       -0.4045
     29 C          64.1016   82.3537   10.7229 C.3     1  UNL1        0.5753
     30 F          64.2840   82.6986    9.2745 F       1  UNL1       -0.1328
     31 F          65.0837   83.4226   11.1012 F       1  UNL1       -0.1328
     32 F          63.1196   81.2848   10.3447 F       1  UNL1       -0.1328
     33 C          64.2035   89.9217   13.3192 C.3     1  UNL1        0.0553
     34 C          63.1118   89.4224   12.4197 C.ar    1  UNL1       -0.0200
     35 C          63.1051   87.9908   11.9717 C.ar    1  UNL1       -0.0037
     36 C          62.0135   87.4915   11.0723 C.ar    1  UNL1        0.0064
     37 C          60.9285   88.4238   10.6208 C.ar    1  UNL1        0.0345
     38 BR         59.8368   87.9245    9.7213 Br      1  UNL1       -0.0490
     39 C          60.9351   89.8553   11.0688 C.ar    1  UNL1        0.0064
     40 C          62.0268   90.3546   11.9682 C.ar    1  UNL1       -0.0037
@<TRIPOS>BOND
     1     2     3    1
     2     3     4    1
     3     5     4    1
     4     5     6    1
     5     6     7    1
     6     8     7    1
     7     8     9    1
     8     8    10    1
     9    10    11   am
    10    11    12    2
    11    11     1    1
    12     1    33    1
    13    33    34    1
    14    34    35   ar
    15    35    36   ar
    16    36    37   ar
    17    37    38    1
    18    37    39   ar
    19    39    40   ar
    20     1    15    1
    21    15    16   am
    22    16    17    2
    23    16    19    1
    24    19    22    1
    25    22    23   ar
    26    23    24   ar
    27    24    25   ar
    28    25    28    1
    29    28    29    1
    30    29    30    1
    31    29    31    1
    32    29    32    1
    33    25    26   ar
    34    26    27   ar
    35    19    20    1
    36    20    21    1
    37     9     3    1
    38    40    34   ar
    39    21    19    1
    40    10     5    1
    41    27    22   ar
    42     2    13    1
    43     2    14    1
    44    15    18    1
@<TRIPOS>MOLECULE
*****
 40 44 0 0 0
SMALL
GASTEIGER

@<TRIPOS>ATOM
      1 C          63.1476   84.4785   12.6142 C.3     1  UNL1        0.1532
      2 N          64.3868   84.1547   12.1510 N.3     1  UNL1       -0.3221
      3 C          63.5421   83.0327   12.6780 C.3     1  UNL1        0.0541
      4 C          62.1660   83.3134   13.2048 C.3     1  UNL1        0.0353
      5 C          61.4470   82.0806   13.6971 C.3     1  UNL1        0.0767
      6 C          60.9840   80.7132   14.1043 C.3     1  UNL1        0.0216
      7 C          62.0853   79.7413   13.8002 C.3     1  UNL1        0.0216
      8 C          63.2290   80.5080   13.2051 C.3     1  UNL1        0.0767
      9 C          64.0736   81.6300   12.6781 C.3     1  UNL1        0.0353
     10 N          62.8345   81.9538   13.1413 N.am    1  UNL1       -0.2814
     11 C          63.6791   83.0758   12.6144 C.2     1  UNL1        0.2437
     12 O          65.0552   82.7951   12.0876 O.2     1  UNL1       -0.2731
     13 H          63.8722   85.0321   12.2265 H       1  UNL1        0.1188
     14 H          64.6154   83.9777   11.1729 H       1  UNL1        0.1188
     15 N          62.6999   85.1110   13.8985 N.am    1  UNL1       -0.2978
     16 C          63.7157   85.5918   14.8919 C.2     1  UNL1        0.2256
     17 O          65.2153   85.6001   14.9279 O.2     1  UNL1       -0.2748
     18 H          61.7392   85.2106   14.0895 H       1  UNL1        0.1498
     19 C          63.2680   86.2243   16.1762 C.3     1  UNL1        0.0876
     20 C          62.7059   86.3587   17.5603 C.3     1  UNL1        0.0135
     21 C          62.7829   85.0092   16.9098 C.3     1  UNL1        0.0135
     22 C          63.5976   87.6591   15.8886 C.ar    1  UNL1       -0.0144
     23 C          63.1134   88.7392   16.8100 C.ar    1  UNL1       -0.0007
     24 C          63.4430   90.1740   16.5224 C.ar    1  UNL1        0.0369
     25 C          64.2569   90.5287   15.3132 C.ar    1  UNL1        0.1468
     26 C          64.7411   89.4486   14.3919 C.ar    1  UNL1        0.0369
     27 C          64.4115   88.0138   14.6796 C.ar    1  UNL1       -0.0007
     28 O          64.5866   91.9635   15.0256 O.3     1  UNL1       -0.4045
     29 C          65.8848   92.5447   15.5018 C.3     1  UNL1        0.5753
     30 F          67.1831   93.1259   15.9780 F       1  UNL1       -0.1328
     31 F          66.4783   92.3343   14.1404 F       1  UNL1       -0.1328
     32 F          65.2913   92.7551   16.8632 F       1  UNL1       -0.1328
     33 C          63.0639   85.2486   11.3298 C.3     1  UNL1        0.0553
     34 C          62.2809   86.5267   11.2712 C.ar    1  UNL1       -0.0200
     35 C          62.9086   87.8121   11.7231 C.ar    1  UNL1       -0.0037
     36 C          62.1256   89.0902   11.6645 C.ar    1  UNL1        0.0064
     37 C          60.7150   89.0830   11.1542 C.ar    1  UNL1        0.0345
     38 BR         59.9321   90.3611   11.0956 Br      1  UNL1       -0.0490
     39 C          60.0875   87.7977   10.7024 C.ar    1  UNL1        0.0064
     40 C          60.8704   86.5195   10.7609 C.ar    1  UNL1       -0.0037
@<TRIPOS>BOND
     1     2     3    1
     2     3     4    1
     3     5     4    1
     4     5     6    1
     5     6     7    1
     6     8     7    1
     7     8     9    1
     8     8    10    1
     9    10    11   am
    10    11    12    2
    11    11     1    1
    12     1    33    1
    13    33    34    1
    14    34    35   ar
    15    35    36   ar
    16    36    37   ar
    17    37    38    1
    18    37    39   ar
    19    39    40   ar
    20     1    15    1
    21    15    16   am
    22    16    17    2
    23    16    19    1
    24    19    22    1
    25    22    23   ar
    26    23    24   ar
    27    24    25   ar
    28    25    28    1
    29    28    29    1
    30    29    30    1
    31    29    31    1
    32    29    32    1
    33    25    26   ar
    34    26    27   ar
    35    19    20    1
    36    20    21    1
    37     9     3    1
    38    40    34   ar
    39    21    19    1
    40    10     5    1
    41    27    22   ar
    42     2    13    1
    43     2    14    1
    44    15    18    1
@<TRIPOS>MOLECULE
*****
 40 44 0 0 0
SMALL
GASTEIGER

@<TRIPOS>ATOM
      1 C          64.0049   89.9696   13.9720 C.3     1  UNL1        0.1532
      2 N          63.1950   90.5704   14.8875 N.3     1  UNL1       -0.3221
      3 C          63.5280   89.1260   15.1170 C.3     1  UNL1        0.0541
      4 C          64.4145   88.3979   14.1506 C.3     1  UNL1        0.0353
      5 C          64.6527   86.9543   14.5226 C.3     1  UNL1        0.0767
      6 C          64.7126   85.5826   15.1267 C.3     1  UNL1        0.0216
      7 C          63.8812   85.5894   16.3752 C.3     1  UNL1        0.0216
      8 C          63.3075   86.9652   16.5427 C.3     1  UNL1        0.0767
      9 C          62.9745   88.4096   16.3131 C.3     1  UNL1        0.0353
     10 N          63.7844   87.8088   15.3977 N.am    1  UNL1       -0.2814
     11 C          63.4514   89.2532   15.1681 C.2     1  UNL1        0.2437
     12 O          62.5649   89.9813   16.1345 O.2     1  UNL1       -0.2731
     13 H          63.6525   90.8935   14.0350 H       1  UNL1        0.1188
     14 H          63.5211   91.1245   15.6793 H       1  UNL1        0.1188
     15 N          63.5328   89.6063   12.5954 N.am    1  UNL1       -0.2978
     16 C          62.0638   89.5334   12.3012 C.2     1  UNL1        0.2256
     17 O          60.8252   89.7541   13.1181 O.2     1  UNL1       -0.2748
     18 H          64.1871   89.4158   11.8849 H       1  UNL1        0.1498
     19 C          61.5916   89.1701   10.9246 C.3     1  UNL1        0.0876
     20 C          60.9851   89.3099    9.5598 C.3     1  UNL1        0.0135
     21 C          61.0408   90.4928   10.4806 C.3     1  UNL1        0.0135
     22 C          61.9785   87.7213   10.8904 C.ar    1  UNL1       -0.0144
     23 C          62.0150   86.9246   12.1609 C.ar    1  UNL1       -0.0007
     24 C          62.4019   85.4757   12.1268 C.ar    1  UNL1        0.0369
     25 C          62.7523   84.8236   10.8221 C.ar    1  UNL1        0.1468
     26 C          62.7159   85.6203    9.5518 C.ar    1  UNL1        0.0369
     27 C          62.3290   87.0691    9.5859 C.ar    1  UNL1       -0.0007
     28 O          63.1392   83.3747   10.7880 O.3     1  UNL1       -0.4045
     29 C          63.5364   82.6745   12.0537 C.3     1  UNL1        0.5753
     30 F          63.9334   81.9743   13.3195 F       1  UNL1       -0.1328
     31 F          62.1826   82.0322   12.1230 F       1  UNL1       -0.1328
     32 F          64.8900   83.3169   11.9844 F       1  UNL1       -0.1328
     33 C          65.0304   91.0491   14.1527 C.3     1  UNL1        0.0553
     34 C          65.6760   91.6786   12.9539 C.ar    1  UNL1       -0.0200
     35 C          64.8263   92.2284   11.8467 C.ar    1  UNL1       -0.0037
     36 C          65.4717   92.8579   10.6479 C.ar    1  UNL1        0.0064
     37 C          66.9669   92.9376   10.5563 C.ar    1  UNL1        0.0345
     38 BR         67.6123   93.5671    9.3575 Br      1  UNL1       -0.0490
     39 C          67.8165   92.3878   11.6635 C.ar    1  UNL1        0.0064
     40 C          67.1710   91.7583   12.8623 C.ar    1  UNL1       -0.0037
@<TRIPOS>BOND
     1     2     3    1
     2     3     4    1
     3     5     4    1
     4     5     6    1
     5     6     7    1
     6     8     7    1
     7     8     9    1
     8     8    10    1
     9    10    11   am
    10    11    12    2
    11    11     1    1
    12     1    33    1
    13    33    34    1
    14    34    35   ar
    15    35    36   ar
    16    36    37   ar
    17    37    38    1
    18    37    39   ar
    19    39    40   ar
    20     1    15    1
    21    15    16   am
    22    16    17    2
    23    16    19    1
    24    19    22    1
    25    22    23   ar
    26    23    24   ar
    27    24    25   ar
    28    25    28    1
    29    28    29    1
    30    29    30    1
    31    29    31    1
    32    29    32    1
    33    25    26   ar
    34    26    27   ar
    35    19    20    1
    36    20    21    1
    37     9     3    1
    38    40    34   ar
    39    21    19    1
    40    10     5    1
    41    27    22   ar
    42     2    13    1
    43     2    14    1
    44    15    18    1
@<TRIPOS>MOLECULE
*****
 40 44 0 0 0
SMALL
GASTEIGER

@<TRIPOS>ATOM
      1 C          63.5334   84.0780   12.7894 C.3     1  UNL1        0.1532
      2 N          64.7250   83.5192   12.4391 N.3     1  UNL1       -0.3221
      3 C          63.6462   82.5866   12.9041 C.3     1  UNL1        0.0541
      4 C          62.3072   83.1299   13.3064 C.3     1  UNL1        0.0353
      5 C          61.3336   82.0643   13.7490 C.3     1  UNL1        0.0767
      6 C          60.5928   80.8171   14.1306 C.3     1  UNL1        0.0216
      7 C          61.5161   79.6513   13.9346 C.3     1  UNL1        0.0216
      8 C          62.8275   80.1780   13.4318 C.3     1  UNL1        0.0767
      9 C          63.9063   81.1107   12.9668 C.3     1  UNL1        0.0353
     10 N          62.7147   81.6694   13.3171 N.am    1  UNL1       -0.2814
     11 C          63.7935   82.6020   12.8521 C.2     1  UNL1        0.2437
     12 O          65.1326   82.0587   12.4499 O.2     1  UNL1       -0.2731
     13 H          64.3777   84.4780   12.4594 H       1  UNL1        0.1188
     14 H          64.9972   83.2763   11.4866 H       1  UNL1        0.1188
     15 N          62.9647   84.7906   13.9805 N.am    1  UNL1       -0.2978
     16 C          63.8768   85.5053   14.9329 C.2     1  UNL1        0.2256
     17 O          65.3617   85.7069   15.0007 O.2     1  UNL1       -0.2748
     18 H          61.9927   84.7892   14.1372 H       1  UNL1        0.1498
     19 C          63.3082   86.2180   16.1240 C.3     1  UNL1        0.0876
     20 C          62.6369   86.4374   17.4473 C.3     1  UNL1        0.0135
     21 C          62.8150   85.0451   16.9184 C.3     1  UNL1        0.0135
     22 C          63.6040   87.6384   15.7433 C.ar    1  UNL1       -0.0144
     23 C          64.2655   87.9411   14.4315 C.ar    1  UNL1       -0.0007
     24 C          64.5613   89.3615   14.0508 C.ar    1  UNL1        0.0369
     25 C          64.1955   90.4793   14.9819 C.ar    1  UNL1        0.1468
     26 C          63.5339   90.1765   16.2936 C.ar    1  UNL1        0.0369
     27 C          63.2382   88.7561   16.6743 C.ar    1  UNL1       -0.0007
     28 O          64.4913   91.8997   14.6012 O.3     1  UNL1       -0.4045
     29 C          65.7574   92.2316   13.8687 C.3     1  UNL1        0.5753
     30 F          67.0236   92.5636   13.1360 F       1  UNL1       -0.1328
     31 F          64.9567   92.6230   12.6621 F       1  UNL1       -0.1328
     32 F          66.5581   91.8403   15.0751 F       1  UNL1       -0.1328
     33 C          63.8419   84.8412   11.5356 C.3     1  UNL1        0.0553
     34 C          62.7284   85.4430   10.7306 C.ar    1  UNL1       -0.0200
     35 C          61.6804   86.2770   11.4063 C.ar    1  UNL1       -0.0037
     36 C          60.5669   86.8788   10.6014 C.ar    1  UNL1        0.0064
     37 C          60.5013   86.6467    9.1209 C.ar    1  UNL1        0.0345
     38 BR         59.3877   87.2485    8.3160 Br      1  UNL1       -0.0490
     39 C          61.5492   85.8128    8.4453 C.ar    1  UNL1        0.0064
     40 C          62.6627   85.2109    9.2502 C.ar    1  UNL1       -0.0037
@<TRIPOS>BOND
     1     2     3    1
     2     3     4    1
     3     5     4    1
     4     5     6    1
     5     6     7    1
     6     8     7    1
     7     8     9    1
     8     8    10    1
     9    10    11   am
    10    11    12    2
    11    11     1    1
    12     1    33    1
    13    33    34    1
    14    34    35   ar
    15    35    36   ar
    16    36    37   ar
    17    37    38    1
    18    37    39   ar
    19    39    40   ar
    20     1    15    1
    21    15    16   am
    22    16    17    2
    23    16    19    1
    24    19    22    1
    25    22    23   ar
    26    23    24   ar
    27    24    25   ar
    28    25    28    1
    29    28    29    1
    30    29    30    1
    31    29    31    1
    32    29    32    1
    33    25    26   ar
    34    26    27   ar
    35    19    20    1
    36    20    21    1
    37     9     3    1
    38    40    34   ar
    39    21    19    1
    40    10     5    1
    41    27    22   ar
    42     2    13    1
    43     2    14    1
    44    15    18    1
@<TRIPOS>MOLECULE
*****
 40 44 0 0 0
SMALL
GASTEIGER

@<TRIPOS>ATOM
      1 C          62.4369   88.8132   11.5654 C.3     1  UNL1        0.1532
      2 N          61.3029   89.1454   12.2428 N.3     1  UNL1       -0.3221
      3 C          61.1380   88.3139   11.0054 C.3     1  UNL1        0.0541
      4 C          62.3421   87.9095   10.2075 C.3     1  UNL1        0.0353
      5 C          62.0077   87.0764    8.9936 C.3     1  UNL1        0.0767
      6 C          61.3918   86.2816    7.8806 C.3     1  UNL1        0.0216
      7 C          59.9062   86.2686    8.0874 C.3     1  UNL1        0.0216
      8 C          59.6040   87.0554    9.3282 C.3     1  UNL1        0.0767
      9 C          59.7690   87.8869   10.5657 C.3     1  UNL1        0.0353
     10 N          60.9028   87.5547    9.8883 N.am    1  UNL1       -0.2814
     11 C          61.0678   88.3862   11.1258 C.2     1  UNL1        0.2437
     12 O          59.8637   88.7906   11.9236 O.2     1  UNL1       -0.2731
     13 H          62.2927   89.3423   12.3907 H       1  UNL1        0.1188
     14 H          60.9337   88.6366   13.0460 H       1  UNL1        0.1188
     15 N          63.1265   88.0871   12.6821 N.am    1  UNL1       -0.2978
     16 C          63.1970   86.5888   12.6717 C.2     1  UNL1        0.2256
     17 O          62.7024   85.5288   11.7326 O.2     1  UNL1       -0.2748
     18 H          63.5329   88.5938   13.4219 H       1  UNL1        0.1498
     19 C          63.8866   85.8625   13.7884 C.3     1  UNL1        0.0876
     20 C          64.6668   85.6288   15.0480 C.3     1  UNL1        0.0135
     21 C          64.3869   87.0289   14.5880 C.3     1  UNL1        0.0135
     22 C          63.6258   84.4439   13.3766 C.ar    1  UNL1       -0.0144
     23 C          62.3794   83.7468   13.8356 C.ar    1  UNL1       -0.0007
     24 C          62.1186   82.3282   13.4238 C.ar    1  UNL1        0.0369
     25 C          63.1042   81.6068   12.5529 C.ar    1  UNL1        0.1468
     26 C          64.3504   82.3039   12.0939 C.ar    1  UNL1        0.0369
     27 C          64.6112   83.7225   12.5058 C.ar    1  UNL1       -0.0007
     28 O          62.8433   80.1881   12.1411 O.3     1  UNL1       -0.4045
     29 C          62.8282   79.8201   10.6871 C.3     1  UNL1        0.5753
     30 F          62.8131   79.4521    9.2329 F       1  UNL1       -0.1328
     31 F          62.8345   81.2743   10.3190 F       1  UNL1       -0.1328
     32 F          62.8219   78.3660   11.0551 F       1  UNL1       -0.1328
     33 C          63.1162   89.9665   10.8884 C.3     1  UNL1        0.0553
     34 C          64.0069   90.8802   11.6769 C.ar    1  UNL1       -0.0200
     35 C          64.6958   92.0263   10.9971 C.ar    1  UNL1       -0.0037
     36 C          65.5865   92.9402   11.7855 C.ar    1  UNL1        0.0064
     37 C          65.7883   92.7079   13.2537 C.ar    1  UNL1        0.0345
     38 BR         66.6790   93.6217   14.0421 Br      1  UNL1       -0.0490
     39 C          65.0994   91.5619   13.9334 C.ar    1  UNL1        0.0064
     40 C          64.2087   90.6480   13.1450 C.ar    1  UNL1       -0.0037
@<TRIPOS>BOND
     1     2     3    1
     2     3     4    1
     3     5     4    1
     4     5     6    1
     5     6     7    1
     6     8     7    1
     7     8     9    1
     8     8    10    1
     9    10    11   am
    10    11    12    2
    11    11     1    1
    12     1    33    1
    13    33    34    1
    14    34    35   ar
    15    35    36   ar
    16    36    37   ar
    17    37    38    1
    18    37    39   ar
    19    39    40   ar
    20     1    15    1
    21    15    16   am
    22    16    17    2
    23    16    19    1
    24    19    22    1
    25    22    23   ar
    26    23    24   ar
    27    24    25   ar
    28    25    28    1
    29    28    29    1
    30    29    30    1
    31    29    31    1
    32    29    32    1
    33    25    26   ar
    34    26    27   ar
    35    19    20    1
    36    20    21    1
    37     9     3    1
    38    40    34   ar
    39    21    19    1
    40    10     5    1
    41    27    22   ar
    42     2    13    1
    43     2    14    1
    44    15    18    1
@<TRIPOS>MOLECULE
*****
 40 44 0 0 0
SMALL
GASTEIGER

@<TRIPOS>ATOM
      1 C          63.8450   89.0945   14.8257 C.3     1  UNL1        0.1532
      2 N          62.9392   89.5401   15.7400 N.3     1  UNL1       -0.3221
      3 C          64.1094   90.4326   15.4499 C.3     1  UNL1        0.0541
      4 C          65.1477   90.0080   14.4541 C.3     1  UNL1        0.0353
      5 C          66.2582   91.0152   14.2761 C.3     1  UNL1        0.0767
      6 C          67.2094   92.1747   14.3038 C.3     1  UNL1        0.0216
      7 C          66.6860   93.1802   15.2861 C.3     1  UNL1        0.0216
      8 C          65.4113   92.6421   15.8656 C.3     1  UNL1        0.0767
      9 C          64.2412   91.7496   16.1556 C.3     1  UNL1        0.0353
     10 N          65.1470   91.3041   15.2413 N.am    1  UNL1       -0.2814
     11 C          63.9768   90.4116   15.5314 C.2     1  UNL1        0.2437
     12 O          62.9385   90.8361   16.5272 O.2     1  UNL1       -0.2731
     13 H          63.0095   88.6932   15.1760 H       1  UNL1        0.1188
     14 H          62.0737   90.0295   15.5122 H       1  UNL1        0.1188
     15 N          62.7569   88.8917   13.8133 N.am    1  UNL1       -0.2978
     16 C          62.9052   89.4528   12.4302 C.2     1  UNL1        0.2256
     17 O          63.9737   90.2441   11.7357 O.2     1  UNL1       -0.2748
     18 H          61.9453   88.3903   14.0567 H       1  UNL1        0.1498
     19 C          61.8172   89.2500   11.4178 C.3     1  UNL1        0.0876
     20 C          60.6246   89.5353   10.5540 C.3     1  UNL1        0.0135
     21 C          61.1381   90.5852   11.4942 C.3     1  UNL1        0.0135
     22 C          62.1185   87.8442   10.9897 C.ar    1  UNL1       -0.0144
     23 C          62.3358   87.5323    9.5387 C.ar    1  UNL1       -0.0007
     24 C          62.6372   86.1266    9.1107 C.ar    1  UNL1        0.0369
     25 C          62.7211   85.0328   10.1338 C.ar    1  UNL1        0.1468
     26 C          62.5037   85.3448   11.5848 C.ar    1  UNL1        0.0369
     27 C          62.2024   86.7505   12.0127 C.ar    1  UNL1       -0.0007
     28 O          63.0224   83.6271    9.7057 O.3     1  UNL1       -0.4045
     29 C          63.8406   82.7331   10.5897 C.3     1  UNL1        0.5753
     30 F          64.6587   81.8390   11.4736 F       1  UNL1       -0.1328
     31 F          62.6753   81.7979   10.7222 F       1  UNL1       -0.1328
     32 F          65.0058   83.6683   10.4571 F       1  UNL1       -0.1328
     33 C          64.8012   87.9804   15.1324 C.3     1  UNL1        0.0553
     34 C          64.3529   86.5537   15.0155 C.ar    1  UNL1       -0.0200
     35 C          63.1474   86.0820   15.7734 C.ar    1  UNL1       -0.0037
     36 C          62.6990   84.6553   15.6566 C.ar    1  UNL1        0.0064
     37 C          63.4562   83.7003   14.7820 C.ar    1  UNL1        0.0345
     38 BR         63.0078   82.2737   14.6652 Br      1  UNL1       -0.0490
     39 C          64.6617   84.1721   14.0242 C.ar    1  UNL1        0.0064
     40 C          65.1101   85.5987   14.1410 C.ar    1  UNL1       -0.0037
@<TRIPOS>BOND
     1     2     3    1
     2     3     4    1
     3     5     4    1
     4     5     6    1
     5     6     7    1
     6     8     7    1
     7     8     9    1
     8     8    10    1
     9    10    11   am
    10    11    12    2
    11    11     1    1
    12     1    33    1
    13    33    34    1
    14    34    35   ar
    15    35    36   ar
    16    36    37   ar
    17    37    38    1
    18    37    39   ar
    19    39    40   ar
    20     1    15    1
    21    15    16   am
    22    16    17    2
    23    16    19    1
    24    19    22    1
    25    22    23   ar
    26    23    24   ar
    27    24    25   ar
    28    25    28    1
    29    28    29    1
    30    29    30    1
    31    29    31    1
    32    29    32    1
    33    25    26   ar
    34    26    27   ar
    35    19    20    1
    36    20    21    1
    37     9     3    1
    38    40    34   ar
    39    21    19    1
    40    10     5    1
    41    27    22   ar
    42     2    13    1
    43     2    14    1
    44    15    18    1
@<TRIPOS>MOLECULE
*****
 40 44 0 0 0
SMALL
GASTEIGER

@<TRIPOS>ATOM
      1 C          63.4410   84.1002   12.0265 C.3     1  UNL1        0.1532
      2 N          64.0916   83.7294   10.8889 N.3     1  UNL1       -0.3221
      3 C          63.3741   82.6510   11.6453 C.3     1  UNL1        0.0541
      4 C          62.6354   82.9845   12.9075 C.3     1  UNL1        0.0353
      5 C          61.9679   81.7911   13.5474 C.3     1  UNL1        0.0767
      6 C          61.4210   80.4541   13.9513 C.3     1  UNL1        0.0216
      7 C          61.8597   79.4463   12.9305 C.3     1  UNL1        0.0216
      8 C          62.6777   80.1606   11.8957 C.3     1  UNL1        0.0767
      9 C          63.3952   81.2390   11.1394 C.3     1  UNL1        0.0353
     10 N          62.7445   81.6098   12.2770 N.am    1  UNL1       -0.2814
     11 C          63.4621   82.6882   11.5207 C.2     1  UNL1        0.2437
     12 O          64.2007   82.3547   10.2585 O.2     1  UNL1       -0.2731
     13 H          63.9730   84.6199   11.3719 H       1  UNL1        0.1188
     14 H          63.7052   83.7991    9.9475 H       1  UNL1        0.1188
     15 N          62.4008   85.0597   11.5290 N.am    1  UNL1       -0.2978
     16 C          62.5082   85.6318   10.1466 C.2     1  UNL1        0.2256
     17 O          63.4914   85.4700    9.0253 O.2     1  UNL1       -0.2748
     18 H          61.6476   85.3139   12.1098 H       1  UNL1        0.1498
     19 C          61.4681   86.5913    9.6490 C.3     1  UNL1        0.0876
     20 C          60.2572   87.1104    8.9321 C.3     1  UNL1        0.0135
     21 C          60.6148   85.6562    8.8445 C.3     1  UNL1        0.0135
     22 C          61.9604   87.8596   10.2808 C.ar    1  UNL1       -0.0144
     23 C          61.7516   89.1731    9.5872 C.ar    1  UNL1       -0.0007
     24 C          62.2438   90.4415   10.2190 C.ar    1  UNL1        0.0369
     25 C          62.9448   90.3961   11.5445 C.ar    1  UNL1        0.1468
     26 C          63.1535   89.0826   12.2380 C.ar    1  UNL1        0.0369
     27 C          62.6613   87.8144   11.6061 C.ar    1  UNL1       -0.0007
     28 O          63.4370   91.6645   12.1763 O.3     1  UNL1       -0.4045
     29 C          64.9086   91.9474   12.2424 C.3     1  UNL1        0.5753
     30 F          66.3802   92.2302   12.3086 F       1  UNL1       -0.1328
     31 F          64.9264   91.5181   13.6796 F       1  UNL1       -0.1328
     32 F          64.8907   92.3766   10.8053 F       1  UNL1       -0.1328
     33 C          64.4600   84.5527   13.0299 C.3     1  UNL1        0.0553
     34 C          64.0182   85.2159   14.3007 C.ar    1  UNL1       -0.0200
     35 C          64.4149   86.6347   14.5833 C.ar    1  UNL1       -0.0037
     36 C          63.9732   87.2980   15.8541 C.ar    1  UNL1        0.0064
     37 C          63.1348   86.5425   16.8423 C.ar    1  UNL1        0.0345
     38 BR         62.6931   87.2058   18.1131 Br      1  UNL1       -0.0490
     39 C          62.7382   85.1238   16.5597 C.ar    1  UNL1        0.0064
     40 C          63.1799   84.4605   15.2889 C.ar    1  UNL1       -0.0037
@<TRIPOS>BOND
     1     2     3    1
     2     3     4    1
     3     5     4    1
     4     5     6    1
     5     6     7    1
     6     8     7    1
     7     8     9    1
     8     8    10    1
     9    10    11   am
    10    11    12    2
    11    11     1    1
    12     1    33    1
    13    33    34    1
    14    34    35   ar
    15    35    36   ar
    16    36    37   ar
    17    37    38    1
    18    37    39   ar
    19    39    40   ar
    20     1    15    1
    21    15    16   am
    22    16    17    2
    23    16    19    1
    24    19    22    1
    25    22    23   ar
    26    23    24   ar
    27    24    25   ar
    28    25    28    1
    29    28    29    1
    30    29    30    1
    31    29    31    1
    32    29    32    1
    33    25    26   ar
    34    26    27   ar
    35    19    20    1
    36    20    21    1
    37     9     3    1
    38    40    34   ar
    39    21    19    1
    40    10     5    1
    41    27    22   ar
    42     2    13    1
    43     2    14    1
    44    15    18    1
@<TRIPOS>MOLECULE
*****
 40 44 0 0 0
SMALL
GASTEIGER

@<TRIPOS>ATOM
      1 C          61.6475   87.2892   10.9638 C.3     1  UNL1        0.1532
      2 N          60.3133   87.5566   10.9041 N.3     1  UNL1       -0.3221
      3 C          60.9064   86.7915    9.7584 C.3     1  UNL1        0.0541
      4 C          62.3694   86.4604    9.7549 C.3     1  UNL1        0.0353
      5 C          62.8089   85.6886    8.5341 C.3     1  UNL1        0.0767
      6 C          62.9568   84.9426    7.2412 C.3     1  UNL1        0.0216
      7 C          61.6099   84.8833    6.5836 C.3     1  UNL1        0.0216
      8 C          60.6296   85.5926    7.4702 C.3     1  UNL1        0.0767
      9 C          60.0365   86.3576    8.6160 C.3     1  UNL1        0.0353
     10 N          61.3706   86.0903    8.6756 N.am    1  UNL1       -0.2814
     11 C          60.7776   86.8553    9.8215 C.2     1  UNL1        0.2437
     12 O          59.3146   87.1864    9.8249 O.2     1  UNL1       -0.2731
     13 H          61.0423   87.7680   11.5854 H       1  UNL1        0.1188
     14 H          59.5861   86.9953   11.3475 H       1  UNL1        0.1188
     15 N          62.7720   86.4107   11.4261 N.am    1  UNL1       -0.2978
     16 C          62.6375   85.6274   12.6981 C.2     1  UNL1        0.2256
     17 O          61.5543   85.4876   13.7263 O.2     1  UNL1       -0.2748
     18 H          63.5983   86.3482   10.8945 H       1  UNL1        0.1498
     19 C          63.7620   84.7489   13.1604 C.3     1  UNL1        0.0876
     20 C          64.9631   84.2842   13.9294 C.3     1  UNL1        0.0135
     21 C          64.3732   85.6357   14.2044 C.3     1  UNL1        0.0135
     22 C          63.5413   83.5569   12.2769 C.ar    1  UNL1       -0.0144
     23 C          62.5700   82.4896   12.6861 C.ar    1  UNL1       -0.0007
     24 C          62.3493   81.2976   11.8026 C.ar    1  UNL1        0.0369
     25 C          63.0999   81.1731   10.5098 C.ar    1  UNL1        0.1468
     26 C          64.0712   82.2404   10.1007 C.ar    1  UNL1        0.0369
     27 C          64.2918   83.4323   10.9842 C.ar    1  UNL1       -0.0007
     28 O          62.8792   79.9811    9.6263 O.3     1  UNL1       -0.4045
     29 C          63.1459   78.6006   10.1489 C.3     1  UNL1        0.5753
     30 F          63.4126   77.2201   10.6714 F       1  UNL1       -0.1328
     31 F          63.8601   78.2567    8.8754 F       1  UNL1       -0.1328
     32 F          62.4317   78.9446   11.4223 F       1  UNL1       -0.1328
     33 C          61.3928   88.6017   11.6439 C.3     1  UNL1        0.0553
     34 C          62.4921   89.6166   11.7513 C.ar    1  UNL1       -0.0200
     35 C          62.7412   90.5744   10.6239 C.ar    1  UNL1       -0.0037
     36 C          63.8405   91.5893   10.7312 C.ar    1  UNL1        0.0064
     37 C          64.6907   91.6465   11.9657 C.ar    1  UNL1        0.0345
     38 BR         65.7900   92.6614   12.0729 Br      1  UNL1       -0.0490
     39 C          64.4416   90.6887   13.0929 C.ar    1  UNL1        0.0064
     40 C          63.3423   89.6738   12.9857 C.ar    1  UNL1       -0.0037
@<TRIPOS>BOND
     1     2     3    1
     2     3     4    1
     3     5     4    1
     4     5     6    1
     5     6     7    1
     6     8     7    1
     7     8     9    1
     8     8    10    1
     9    10    11   am
    10    11    12    2
    11    11     1    1
    12     1    33    1
    13    33    34    1
    14    34    35   ar
    15    35    36   ar
    16    36    37   ar
    17    37    38    1
    18    37    39   ar
    19    39    40   ar
    20     1    15    1
    21    15    16   am
    22    16    17    2
    23    16    19    1
    24    19    22    1
    25    22    23   ar
    26    23    24   ar
    27    24    25   ar
    28    25    28    1
    29    28    29    1
    30    29    30    1
    31    29    31    1
    32    29    32    1
    33    25    26   ar
    34    26    27   ar
    35    19    20    1
    36    20    21    1
    37     9     3    1
    38    40    34   ar
    39    21    19    1
    40    10     5    1
    41    27    22   ar
    42     2    13    1
    43     2    14    1
    44    15    18    1
