@<TRIPOS>MOLECULE
*****
 33 36 0 0 0
SMALL
GASTEIGER

@<TRIPOS>ATOM
      1 C          60.9118   88.1820   10.1206 C.ar    1  UNL1        0.1399
      2 C          59.8203   88.0874    9.0960 C.ar    1  UNL1        0.0554
      3 C          59.8420   86.9874    8.0764 C.ar    1  UNL1        0.1047
      4 N          60.9551   85.9820    8.0814 N.ar    1  UNL1       -0.2119
      5 C          62.0466   86.0765    9.1060 C.ar    1  UNL1        0.2218
      6 N          62.0250   87.1765   10.1256 N.ar    1  UNL1       -0.1983
      7 N          60.8901   89.2820   11.1402 N.pl3   1  UNL1       -0.2705
      8 C          59.6605   89.5138   11.9673 C.3     1  UNL1        0.1187
      9 C          66.5969   93.5259   11.3719 C.3     1  UNL1        0.0518
     10 C          65.6942   92.6702   12.2103 C.ar    1  UNL1        0.0575
     11 C          64.5141   91.8864   11.7172 C.ar    1  UNL1        0.0326
     12 C          63.9166   91.7249   10.3509 C.ar    1  UNL1        0.0040
     13 C          62.7086   90.8567   10.1586 C.ar    1  UNL1        0.0150
     14 C          62.0982   90.1501   11.3326 C.ar    1  UNL1        0.0543
     15 C          62.6958   90.3117   12.6988 C.ar    1  UNL1        0.0357
     16 C          63.9037   91.1799   12.8912 C.ar    1  UNL1        0.1032
     17 N          64.7066   91.5270   14.1098 N.ar    1  UNL1       -0.1695
     18 N          65.8132   92.4481   13.6890 N.ar    1  UNL1       -0.2529
     19 C          66.8556   93.0426   14.5889 C.3     1  UNL1        0.1533
     20 N          63.1597   85.0711    9.1110 N.pl3   1  UNL1       -0.2825
     21 H          63.7503   84.9866    8.3278 H       1  UNL1        0.1551
     22 C          63.3730   84.1943   10.3092 C.ar    1  UNL1        0.0518
     23 C          64.0579   82.8686   10.1560 C.ar    1  UNL1        0.0148
     24 C          64.2712   81.9918   11.3542 C.ar    1  UNL1        0.0026
     25 C          63.7997   82.4406   12.7056 C.ar    1  UNL1        0.0200
     26 C          63.1149   83.7663   12.8587 C.ar    1  UNL1        0.1229
     27 C          62.9016   84.6431   11.6605 C.ar    1  UNL1        0.0346
     28 S          62.6434   84.2153   14.2101 S.O2    1  UNL1        0.0572
     29 N          62.1719   84.6641   15.5614 N.3     1  UNL1       -0.2035
     30 O          62.1602   82.8258   14.5030 O.2     1  UNL1       -0.1532
     31 O          63.1266   85.6047   13.9171 O.2     1  UNL1       -0.1532
     32 H          61.7552   83.8751   16.0555 H       1  UNL1        0.1442
     33 H          61.4762   85.4019   15.4510 H       1  UNL1        0.1442
@<TRIPOS>BOND
     1     9    10    1
     2    10    11   ar
     3    11    12   ar
     4    12    13   ar
     5    13    14   ar
     6    14     7    1
     7     7     8    1
     8     7     1    1
     9     1     2   ar
    10     2     3   ar
    11     3     4   ar
    12     4     5   ar
    13     5    20    1
    14    20    22    1
    15    22    23   ar
    16    23    24   ar
    17    24    25   ar
    18    25    26   ar
    19    26    28    1
    20    28    29    1
    21    28    30    2
    22    28    31    2
    23    26    27   ar
    24     5     6   ar
    25    14    15   ar
    26    15    16   ar
    27    16    17   ar
    28    17    18   ar
    29    18    19    1
    30    18    10   ar
    31    16    11   ar
    32     6     1   ar
    33    27    22   ar
    34    20    21    1
    35    29    32    1
    36    29    33    1
@<TRIPOS>MOLECULE
*****
 33 36 0 0 0
SMALL
GASTEIGER

@<TRIPOS>ATOM
      1 C          62.4360   89.2925   10.8759 C.ar    1  UNL1        0.1399
      2 C          62.7200   90.4797   10.0043 C.ar    1  UNL1        0.0554
      3 C          63.5820   91.5960   10.5149 C.ar    1  UNL1        0.1047
      4 N          64.1601   91.5251   11.8972 N.ar    1  UNL1       -0.2119
      5 C          63.8761   90.3378   12.7689 C.ar    1  UNL1        0.2218
      6 N          63.0140   89.2215   12.2583 N.ar    1  UNL1       -0.1983
      7 N          61.5739   88.1762   10.3653 N.pl3   1  UNL1       -0.2705
      8 C          60.2224   88.4762    9.7879 C.3     1  UNL1        0.1187
      9 C          64.0542   81.5163   10.0104 C.3     1  UNL1        0.0518
     10 C          63.4447   82.5297   10.9332 C.ar    1  UNL1        0.0575
     11 C          63.0423   83.9272   10.5657 C.ar    1  UNL1        0.0326
     12 C          63.1157   84.6860    9.2738 C.ar    1  UNL1        0.0040
     13 C          62.6262   86.1022    9.2070 C.ar    1  UNL1        0.0150
     14 C          62.0634   86.7598   10.4321 C.ar    1  UNL1        0.0543
     15 C          61.9900   86.0011   11.7240 C.ar    1  UNL1        0.0357
     16 C          62.4794   84.5848   11.7907 C.ar    1  UNL1        0.1032
     17 N          62.5340   83.5937   12.9153 N.ar    1  UNL1       -0.1695
     18 N          63.1305   82.3236   12.3853 N.ar    1  UNL1       -0.2529
     19 C          63.3708   81.0678   13.1698 C.3     1  UNL1        0.1533
     20 N          64.4542   90.2669   14.1512 N.pl3   1  UNL1       -0.2825
     21 H          65.1155   90.9352   14.4431 H       1  UNL1        0.1551
     22 C          64.0247   89.1777   15.0888 C.ar    1  UNL1        0.0518
     23 C          63.2459   89.5162   16.3252 C.ar    1  UNL1        0.0148
     24 C          62.8163   88.4270   17.2628 C.ar    1  UNL1        0.0026
     25 C          63.1657   86.9992   16.9640 C.ar    1  UNL1        0.0200
     26 C          63.9445   86.6606   15.7276 C.ar    1  UNL1        0.1229
     27 C          64.3740   87.7499   14.7900 C.ar    1  UNL1        0.0346
     28 S          64.2938   85.2328   15.4287 S.O2    1  UNL1        0.0572
     29 N          64.6431   83.8050   15.1299 N.3     1  UNL1       -0.2035
     30 O          62.9967   84.7882   16.0368 O.2     1  UNL1       -0.1532
     31 O          65.5910   85.6774   14.8207 O.2     1  UNL1       -0.1532
     32 H          63.8907   83.1963   15.4520 H       1  UNL1        0.1442
     33 H          65.5086   83.5590   15.6103 H       1  UNL1        0.1442
@<TRIPOS>BOND
     1     9    10    1
     2    10    11   ar
     3    11    12   ar
     4    12    13   ar
     5    13    14   ar
     6    14     7    1
     7     7     8    1
     8     7     1    1
     9     1     2   ar
    10     2     3   ar
    11     3     4   ar
    12     4     5   ar
    13     5    20    1
    14    20    22    1
    15    22    23   ar
    16    23    24   ar
    17    24    25   ar
    18    25    26   ar
    19    26    28    1
    20    28    29    1
    21    28    30    2
    22    28    31    2
    23    26    27   ar
    24     5     6   ar
    25    14    15   ar
    26    15    16   ar
    27    16    17   ar
    28    17    18   ar
    29    18    19    1
    30    18    10   ar
    31    16    11   ar
    32     6     1   ar
    33    27    22   ar
    34    20    21    1
    35    29    32    1
    36    29    33    1
@<TRIPOS>MOLECULE
*****
 33 36 0 0 0
SMALL
GASTEIGER

@<TRIPOS>ATOM
      1 C          60.8752   88.4512   10.1233 C.ar    1  UNL1        0.1399
      2 C          59.9530   88.3030    8.9496 C.ar    1  UNL1        0.0554
      3 C          59.9998   87.0600    8.1113 C.ar    1  UNL1        0.1047
      4 N          60.9688   85.9652    8.4467 N.ar    1  UNL1       -0.2119
      5 C          61.8911   86.1134    9.6204 C.ar    1  UNL1        0.2218
      6 N          61.8443   87.3564   10.4587 N.ar    1  UNL1       -0.1983
      7 N          60.8284   89.6942   10.9617 N.pl3   1  UNL1       -0.2705
      8 C          59.5133   90.2088   11.4672 C.3     1  UNL1        0.1187
      9 C          66.8897   93.3096   11.8677 C.3     1  UNL1        0.0518
     10 C          65.8411   92.5123   12.5851 C.ar    1  UNL1        0.0575
     11 C          64.6334   91.8794   11.9599 C.ar    1  UNL1        0.0326
     12 C          64.1366   91.8465   10.5450 C.ar    1  UNL1        0.0040
     13 C          62.8682   91.1181   10.2123 C.ar    1  UNL1        0.0150
     14 C          62.0968   90.4226   11.2944 C.ar    1  UNL1        0.0543
     15 C          62.5936   90.4555   12.7093 C.ar    1  UNL1        0.0357
     16 C          63.8620   91.1839   13.0421 C.ar    1  UNL1        0.1032
     17 N          64.5929   91.3870   14.3361 N.ar    1  UNL1       -0.1695
     18 N          65.8160   92.2080   14.0537 N.ar    1  UNL1       -0.2529
     19 C          66.8352   92.6476   15.0627 C.3     1  UNL1        0.1533
     20 N          62.8601   85.0187    9.9558 N.pl3   1  UNL1       -0.2825
     21 H          63.4661   84.6686    9.2634 H       1  UNL1        0.1551
     22 C          62.9057   84.4573   11.3460 C.ar    1  UNL1        0.0518
     23 C          63.1961   85.3584   12.5095 C.ar    1  UNL1        0.0148
     24 C          63.2418   84.7971   13.8998 C.ar    1  UNL1        0.0026
     25 C          62.9971   83.3347   14.1265 C.ar    1  UNL1        0.0200
     26 C          62.7067   82.4336   12.9631 C.ar    1  UNL1        0.1229
     27 C          62.6610   82.9950   11.5728 C.ar    1  UNL1        0.0346
     28 S          62.4620   80.9711   13.1898 S.O2    1  UNL1        0.0572
     29 N          62.2173   79.5087   13.4166 N.3     1  UNL1       -0.2035
     30 O          62.0838   81.2552   14.6133 O.2     1  UNL1       -0.1532
     31 O          62.8402   80.6871   11.7664 O.2     1  UNL1       -0.1532
     32 H          61.9194   79.3594   14.3806 H       1  UNL1        0.1442
     33 H          63.0774   78.9890   13.2421 H       1  UNL1        0.1442
@<TRIPOS>BOND
     1     9    10    1
     2    10    11   ar
     3    11    12   ar
     4    12    13   ar
     5    13    14   ar
     6    14     7    1
     7     7     8    1
     8     7     1    1
     9     1     2   ar
    10     2     3   ar
    11     3     4   ar
    12     4     5   ar
    13     5    20    1
    14    20    22    1
    15    22    23   ar
    16    23    24   ar
    17    24    25   ar
    18    25    26   ar
    19    26    28    1
    20    28    29    1
    21    28    30    2
    22    28    31    2
    23    26    27   ar
    24     5     6   ar
    25    14    15   ar
    26    15    16   ar
    27    16    17   ar
    28    17    18   ar
    29    18    19    1
    30    18    10   ar
    31    16    11   ar
    32     6     1   ar
    33    27    22   ar
    34    20    21    1
    35    29    32    1
    36    29    33    1
@<TRIPOS>MOLECULE
*****
 33 36 0 0 0
SMALL
GASTEIGER

@<TRIPOS>ATOM
      1 C          63.7448   88.7986   14.6167 C.ar    1  UNL1        0.1399
      2 C          63.1450   89.3089   15.8934 C.ar    1  UNL1        0.0554
      3 C          63.0332   88.4035   17.0840 C.ar    1  UNL1        0.1047
      4 N          63.5211   86.9877   16.9981 N.ar    1  UNL1       -0.2119
      5 C          64.1208   86.4772   15.7214 C.ar    1  UNL1        0.2218
      6 N          64.2327   87.3827   14.5307 N.ar    1  UNL1       -0.1983
      7 N          63.8567   89.7040   13.4261 N.pl3   1  UNL1       -0.2705
      8 C          64.8224   90.8516   13.4447 C.3     1  UNL1        0.1187
      9 C          59.7294   89.2423    7.6482 C.3     1  UNL1        0.0518
     10 C          60.5030   88.4333    8.6466 C.ar    1  UNL1        0.0575
     11 C          61.2950   88.9775    9.7984 C.ar    1  UNL1        0.0326
     12 C          61.5419   90.3785   10.2738 C.ar    1  UNL1        0.0040
     13 C          62.3958   90.6207   11.4830 C.ar    1  UNL1        0.0150
     14 C          63.0028   89.4618   12.2168 C.ar    1  UNL1        0.0543
     15 C          62.7559   88.0607   11.7414 C.ar    1  UNL1        0.0357
     16 C          61.9020   87.8186   10.5322 C.ar    1  UNL1        0.1032
     17 N          61.4852   86.5582    9.8339 N.ar    1  UNL1       -0.1695
     18 N          60.6205   86.9381    8.6686 N.ar    1  UNL1       -0.2529
     19 C          59.9850   85.9893    7.6959 C.3     1  UNL1        0.1533
     20 N          64.6087   85.0614   15.6355 N.pl3   1  UNL1       -0.2825
     21 H          65.4167   84.7885   16.1274 H       1  UNL1        0.1551
     22 C          63.8657   84.0615   14.8000 C.ar    1  UNL1        0.0518
     23 C          62.6620   83.3631   15.3599 C.ar    1  UNL1        0.0148
     24 C          61.9190   82.3632   14.5244 C.ar    1  UNL1        0.0026
     25 C          62.3795   82.0616   13.1291 C.ar    1  UNL1        0.0200
     26 C          63.5832   82.7600   12.5693 C.ar    1  UNL1        0.1229
     27 C          64.3262   83.7600   13.4047 C.ar    1  UNL1        0.0346
     28 S          64.0438   82.4585   11.1739 S.O2    1  UNL1        0.0572
     29 N          64.5044   82.1570    9.7786 N.3     1  UNL1       -0.2035
     30 O          65.0390   83.5774   11.2607 O.2     1  UNL1       -0.1532
     31 O          63.0486   81.3396   11.0871 O.2     1  UNL1       -0.1532
     32 H          65.2469   82.8061    9.5180 H       1  UNL1        0.1442
     33 H          63.7216   82.2588    9.1327 H       1  UNL1        0.1442
@<TRIPOS>BOND
     1     9    10    1
     2    10    11   ar
     3    11    12   ar
     4    12    13   ar
     5    13    14   ar
     6    14     7    1
     7     7     8    1
     8     7     1    1
     9     1     2   ar
    10     2     3   ar
    11     3     4   ar
    12     4     5   ar
    13     5    20    1
    14    20    22    1
    15    22    23   ar
    16    23    24   ar
    17    24    25   ar
    18    25    26   ar
    19    26    28    1
    20    28    29    1
    21    28    30    2
    22    28    31    2
    23    26    27   ar
    24     5     6   ar
    25    14    15   ar
    26    15    16   ar
    27    16    17   ar
    28    17    18   ar
    29    18    19    1
    30    18    10   ar
    31    16    11   ar
    32     6     1   ar
    33    27    22   ar
    34    20    21    1
    35    29    32    1
    36    29    33    1
@<TRIPOS>MOLECULE
*****
 33 36 0 0 0
SMALL
GASTEIGER

@<TRIPOS>ATOM
      1 C          61.2868   88.3761    9.6915 C.ar    1  UNL1        0.1399
      2 C          59.9360   88.9841    9.9273 C.ar    1  UNL1        0.0554
      3 C          59.8254   90.3792   10.4672 C.ar    1  UNL1        0.1047
      4 N          61.0655   91.1663   10.7712 N.ar    1  UNL1       -0.2119
      5 C          62.4164   90.5583   10.5354 C.ar    1  UNL1        0.2218
      6 N          62.5270   89.1632    9.9955 N.ar    1  UNL1       -0.1983
      7 N          61.3974   86.9810    9.1517 N.pl3   1  UNL1       -0.2705
      8 C          60.8388   86.6539    7.7986 C.3     1  UNL1        0.1187
      9 C          64.8131   81.6585   12.4129 C.3     1  UNL1        0.0518
     10 C          63.9446   82.8587   12.6479 C.ar    1  UNL1        0.0575
     11 C          63.4053   83.7770   11.5915 C.ar    1  UNL1        0.0326
     12 C          63.5510   83.7848   10.0987 C.ar    1  UNL1        0.0040
     13 C          62.8817   84.8528    9.2854 C.ar    1  UNL1        0.0150
     14 C          62.0667   85.9130    9.9650 C.ar    1  UNL1        0.0543
     15 C          61.9210   85.9051   11.4579 C.ar    1  UNL1        0.0357
     16 C          62.5903   84.8371   12.2711 C.ar    1  UNL1        0.1032
     17 N          62.6259   84.5740   13.7474 N.ar    1  UNL1       -0.1695
     18 N          63.4629   83.3512   13.9803 N.ar    1  UNL1       -0.2529
     19 C          63.7652   82.7301   15.3118 C.3     1  UNL1        0.1533
     20 N          63.6565   91.3454   10.8394 N.pl3   1  UNL1       -0.2825
     21 H          64.1045   91.8536   10.1250 H       1  UNL1        0.1551
     22 C          64.2142   91.3582   12.2318 C.ar    1  UNL1        0.0518
     23 C          65.3823   92.2387   12.5638 C.ar    1  UNL1        0.0148
     24 C          65.9400   92.2516   13.9562 C.ar    1  UNL1        0.0026
     25 C          65.3295   91.3839   15.0166 C.ar    1  UNL1        0.0200
     26 C          64.1615   90.5034   14.6846 C.ar    1  UNL1        0.1229
     27 C          63.6038   90.4906   13.2922 C.ar    1  UNL1        0.0346
     28 S          63.5510   89.6357   15.7451 S.O2    1  UNL1        0.0572
     29 N          62.9405   88.7681   16.8055 N.3     1  UNL1       -0.2035
     30 O          63.3256   90.8444   16.6043 O.2     1  UNL1       -0.1532
     31 O          63.7763   88.4271   14.8859 O.2     1  UNL1       -0.1532
     32 H          62.6577   89.3463   17.5967 H       1  UNL1        0.1442
     33 H          63.6248   88.0783   17.1159 H       1  UNL1        0.1442
@<TRIPOS>BOND
     1     9    10    1
     2    10    11   ar
     3    11    12   ar
     4    12    13   ar
     5    13    14   ar
     6    14     7    1
     7     7     8    1
     8     7     1    1
     9     1     2   ar
    10     2     3   ar
    11     3     4   ar
    12     4     5   ar
    13     5    20    1
    14    20    22    1
    15    22    23   ar
    16    23    24   ar
    17    24    25   ar
    18    25    26   ar
    19    26    28    1
    20    28    29    1
    21    28    30    2
    22    28    31    2
    23    26    27   ar
    24     5     6   ar
    25    14    15   ar
    26    15    16   ar
    27    16    17   ar
    28    17    18   ar
    29    18    19    1
    30    18    10   ar
    31    16    11   ar
    32     6     1   ar
    33    27    22   ar
    34    20    21    1
    35    29    32    1
    36    29    33    1
@<TRIPOS>MOLECULE
*****
 33 36 0 0 0
SMALL
GASTEIGER

@<TRIPOS>ATOM
      1 C          63.5591   85.6344   14.9031 C.ar    1  UNL1        0.1399
      2 C          62.7961   85.1236   16.0892 C.ar    1  UNL1        0.0554
      3 C          62.4009   86.0643   17.1887 C.ar    1  UNL1        0.1047
      4 N          62.7688   87.5159   17.1021 N.ar    1  UNL1       -0.2119
      5 C          63.5318   88.0268   15.9160 C.ar    1  UNL1        0.2218
      6 N          63.9270   87.0860   14.8165 N.ar    1  UNL1       -0.1983
      7 N          63.9542   84.6936   13.8037 N.pl3   1  UNL1       -0.2705
      8 C          64.8987   83.5634   14.0870 C.3     1  UNL1        0.1187
      9 C          61.7910   85.1022    7.0371 C.3     1  UNL1        0.0518
     10 C          61.5745   85.6670    8.4097 C.ar    1  UNL1        0.0575
     11 C          62.3060   85.2623    9.6552 C.ar    1  UNL1        0.0326
     12 C          63.3893   84.2542    9.9001 C.ar    1  UNL1        0.0040
     13 C          63.9387   84.0646   11.2829 C.ar    1  UNL1        0.0150
     14 C          63.4047   84.8832   12.4208 C.ar    1  UNL1        0.0543
     15 C          62.3214   85.8913   12.1759 C.ar    1  UNL1        0.0357
     16 C          61.7721   86.0809   10.7931 C.ar    1  UNL1        0.1032
     17 N          60.7105   86.9915   10.2509 N.ar    1  UNL1       -0.1695
     18 N          60.5884   86.7357    8.7779 N.ar    1  UNL1       -0.2529
     19 C          59.6457   87.4272    7.8381 C.3     1  UNL1        0.1533
     20 N          63.8997   89.4784   15.8294 N.pl3   1  UNL1       -0.2825
     21 H          64.0693   89.9931   16.6513 H       1  UNL1        0.1551
     22 C          64.0091   90.1458   14.4905 C.ar    1  UNL1        0.0518
     23 C          65.1916   91.0149   14.1802 C.ar    1  UNL1        0.0148
     24 C          65.3010   91.6823   12.8413 C.ar    1  UNL1        0.0026
     25 C          64.2280   91.4806   11.8127 C.ar    1  UNL1        0.0200
     26 C          63.0456   90.6114   12.1231 C.ar    1  UNL1        0.1229
     27 C          62.9361   89.9440   13.4620 C.ar    1  UNL1        0.0346
     28 S          61.9725   90.4097   11.0945 S.O2    1  UNL1        0.0572
     29 N          60.8995   90.2079   10.0661 N.3     1  UNL1       -0.2035
     30 O          61.1354   89.6889   12.1093 O.2     1  UNL1       -0.1532
     31 O          62.8096   91.1304   10.0798 O.2     1  UNL1       -0.1532
     32 H          60.1196   89.7001   10.4835 H       1  UNL1        0.1442
     33 H          61.2747   89.6714    9.2839 H       1  UNL1        0.1442
@<TRIPOS>BOND
     1     9    10    1
     2    10    11   ar
     3    11    12   ar
     4    12    13   ar
     5    13    14   ar
     6    14     7    1
     7     7     8    1
     8     7     1    1
     9     1     2   ar
    10     2     3   ar
    11     3     4   ar
    12     4     5   ar
    13     5    20    1
    14    20    22    1
    15    22    23   ar
    16    23    24   ar
    17    24    25   ar
    18    25    26   ar
    19    26    28    1
    20    28    29    1
    21    28    30    2
    22    28    31    2
    23    26    27   ar
    24     5     6   ar
    25    14    15   ar
    26    15    16   ar
    27    16    17   ar
    28    17    18   ar
    29    18    19    1
    30    18    10   ar
    31    16    11   ar
    32     6     1   ar
    33    27    22   ar
    34    20    21    1
    35    29    32    1
    36    29    33    1
@<TRIPOS>MOLECULE
*****
 33 36 0 0 0
SMALL
GASTEIGER

@<TRIPOS>ATOM
      1 C          63.6236   85.8747   14.9361 C.ar    1  UNL1        0.1399
      2 C          62.9854   85.4648   16.2302 C.ar    1  UNL1        0.0554
      3 C          62.6798   86.4962   17.2755 C.ar    1  UNL1        0.1047
      4 N          63.0123   87.9376   17.0268 N.ar    1  UNL1       -0.2119
      5 C          63.6506   88.3475   15.7327 C.ar    1  UNL1        0.2218
      6 N          63.9562   87.3161   14.6873 N.ar    1  UNL1       -0.1983
      7 N          63.9292   84.8432   13.8908 N.pl3   1  UNL1       -0.2705
      8 C          64.7771   83.6548   14.2351 C.3     1  UNL1        0.1187
      9 C          61.7918   85.0839    7.1080 C.3     1  UNL1        0.0518
     10 C          61.5814   85.6938    8.4622 C.ar    1  UNL1        0.0575
     11 C          62.3024   85.3144    9.7217 C.ar    1  UNL1        0.0326
     12 C          63.3674   84.2955   10.0005 C.ar    1  UNL1        0.0040
     13 C          63.9096   84.1385   11.3902 C.ar    1  UNL1        0.0150
     14 C          63.3869   85.0003   12.5010 C.ar    1  UNL1        0.0543
     15 C          62.3220   86.0192   12.2222 C.ar    1  UNL1        0.0357
     16 C          61.7797   86.1762   10.8325 C.ar    1  UNL1        0.1032
     17 N          60.7357   87.0882   10.2596 N.ar    1  UNL1       -0.1695
     18 N          60.6131   86.7901    8.7947 N.ar    1  UNL1       -0.2529
     19 C          59.6852   87.4690    7.8313 C.3     1  UNL1        0.1533
     20 N          63.9832   89.7889   15.4840 N.pl3   1  UNL1       -0.2825
     21 H          64.2070   90.3798   16.2389 H       1  UNL1        0.1551
     22 C          63.9748   90.3299   14.0850 C.ar    1  UNL1        0.0518
     23 C          62.9934   89.8002   13.0818 C.ar    1  UNL1        0.0148
     24 C          62.9850   90.3412   11.6828 C.ar    1  UNL1        0.0026
     25 C          63.9580   91.4120   11.2870 C.ar    1  UNL1        0.0200
     26 C          64.9393   91.9417   12.2901 C.ar    1  UNL1        0.1229
     27 C          64.9477   91.4007   13.6891 C.ar    1  UNL1        0.0346
     28 S          65.9124   93.0125   11.8942 S.O2    1  UNL1        0.0572
     29 N          66.8853   94.0833   11.4984 N.3     1  UNL1       -0.2035
     30 O          65.9058   92.4976   10.4854 O.2     1  UNL1       -0.1532
     31 O          65.9189   93.5275   13.3030 O.2     1  UNL1       -0.1532
     32 H          67.1017   93.9959   10.5054 H       1  UNL1        0.1442
     33 H          67.7418   93.9827   12.0431 H       1  UNL1        0.1442
@<TRIPOS>BOND
     1     9    10    1
     2    10    11   ar
     3    11    12   ar
     4    12    13   ar
     5    13    14   ar
     6    14     7    1
     7     7     8    1
     8     7     1    1
     9     1     2   ar
    10     2     3   ar
    11     3     4   ar
    12     4     5   ar
    13     5    20    1
    14    20    22    1
    15    22    23   ar
    16    23    24   ar
    17    24    25   ar
    18    25    26   ar
    19    26    28    1
    20    28    29    1
    21    28    30    2
    22    28    31    2
    23    26    27   ar
    24     5     6   ar
    25    14    15   ar
    26    15    16   ar
    27    16    17   ar
    28    17    18   ar
    29    18    19    1
    30    18    10   ar
    31    16    11   ar
    32     6     1   ar
    33    27    22   ar
    34    20    21    1
    35    29    32    1
    36    29    33    1
@<TRIPOS>MOLECULE
*****
 33 36 0 0 0
SMALL
GASTEIGER

@<TRIPOS>ATOM
      1 C          62.2963   89.2772   10.6576 C.ar    1  UNL1        0.1399
      2 C          62.8311   90.4381    9.8727 C.ar    1  UNL1        0.0554
      3 C          63.5044   91.5760   10.5811 C.ar    1  UNL1        0.1047
      4 N          63.6429   91.5529   12.0745 N.ar    1  UNL1       -0.2119
      5 C          63.1081   90.3919   12.8595 C.ar    1  UNL1        0.2218
      6 N          62.4348   89.2541   12.1511 N.ar    1  UNL1       -0.1983
      7 N          61.6231   88.1393    9.9491 N.pl3   1  UNL1       -0.2705
      8 C          60.4802   88.4080    9.0156 C.3     1  UNL1        0.1187
      9 C          63.9933   81.4414   10.3394 C.3     1  UNL1        0.0518
     10 C          63.4226   82.5688   11.1476 C.ar    1  UNL1        0.0575
     11 C          63.0321   83.9192   10.6244 C.ar    1  UNL1        0.0326
     12 C          63.0841   84.5163    9.2493 C.ar    1  UNL1        0.0040
     13 C          62.6144   85.9230    9.0243 C.ar    1  UNL1        0.0150
     14 C          62.0927   86.7325   10.1743 C.ar    1  UNL1        0.0543
     15 C          62.0407   86.1355   11.5493 C.ar    1  UNL1        0.0357
     16 C          62.5104   84.7288   11.7743 C.ar    1  UNL1        0.1032
     17 N          62.5785   83.8787   13.0083 N.ar    1  UNL1       -0.1695
     18 N          63.1423   82.5437   12.6210 N.ar    1  UNL1       -0.2529
     19 C          63.3834   81.3868   13.5448 C.3     1  UNL1        0.1533
     20 N          63.2466   90.3689   14.3529 N.pl3   1  UNL1       -0.2825
     21 H          62.6093   89.8537   14.8985 H       1  UNL1        0.1551
     22 C          64.3561   91.1308   15.0151 C.ar    1  UNL1        0.0518
     23 C          64.1104   91.8331   16.3175 C.ar    1  UNL1        0.0148
     24 C          65.2199   92.5951   16.9797 C.ar    1  UNL1        0.0026
     25 C          66.5751   92.6546   16.3395 C.ar    1  UNL1        0.0200
     26 C          66.8207   91.9523   15.0371 C.ar    1  UNL1        0.1229
     27 C          65.7112   91.1904   14.3749 C.ar    1  UNL1        0.0346
     28 S          68.1760   92.0118   14.3968 S.O2    1  UNL1        0.0572
     29 N          69.5312   92.0714   13.7566 N.3     1  UNL1       -0.2035
     30 O          68.8155   92.0414   15.7533 O.2     1  UNL1       -0.1532
     31 O          67.5365   91.9823   13.0403 O.2     1  UNL1       -0.1532
     32 H          70.2483   92.1038   14.4812 H       1  UNL1        0.1442
     33 H          69.5964   92.9074   13.1759 H       1  UNL1        0.1442
@<TRIPOS>BOND
     1     9    10    1
     2    10    11   ar
     3    11    12   ar
     4    12    13   ar
     5    13    14   ar
     6    14     7    1
     7     7     8    1
     8     7     1    1
     9     1     2   ar
    10     2     3   ar
    11     3     4   ar
    12     4     5   ar
    13     5    20    1
    14    20    22    1
    15    22    23   ar
    16    23    24   ar
    17    24    25   ar
    18    25    26   ar
    19    26    28    1
    20    28    29    1
    21    28    30    2
    22    28    31    2
    23    26    27   ar
    24     5     6   ar
    25    14    15   ar
    26    15    16   ar
    27    16    17   ar
    28    17    18   ar
    29    18    19    1
    30    18    10   ar
    31    16    11   ar
    32     6     1   ar
    33    27    22   ar
    34    20    21    1
    35    29    32    1
    36    29    33    1
@<TRIPOS>MOLECULE
*****
 33 36 0 0 0
SMALL
GASTEIGER

@<TRIPOS>ATOM
      1 C          63.7062   86.5630   15.1108 C.ar    1  UNL1        0.1399
      2 C          63.4521   85.9827   16.4704 C.ar    1  UNL1        0.0554
      3 C          63.1534   86.8882   17.6284 C.ar    1  UNL1        0.1047
      4 N          63.1088   88.3738   17.4268 N.ar    1  UNL1       -0.2119
      5 C          63.3629   88.9542   16.0671 C.ar    1  UNL1        0.2218
      6 N          63.6616   88.0487   14.9091 N.ar    1  UNL1       -0.1983
      7 N          64.0049   85.6576   13.9528 N.pl3   1  UNL1       -0.2705
      8 C          65.0457   84.5859   14.0877 C.3     1  UNL1        0.1187
      9 C          60.5878   85.7699    7.7124 C.3     1  UNL1        0.0518
     10 C          61.0140   86.6224    8.8706 C.ar    1  UNL1        0.0575
     11 C          61.7788   86.1564   10.0740 C.ar    1  UNL1        0.0326
     12 C          62.3119   84.8100   10.4649 C.ar    1  UNL1        0.0040
     13 C          63.0540   84.6437   11.7578 C.ar    1  UNL1        0.0150
     14 C          63.2628   85.8239   12.6598 C.ar    1  UNL1        0.0543
     15 C          62.7297   87.1703   12.2689 C.ar    1  UNL1        0.0357
     16 C          61.9877   87.3366   10.9760 C.ar    1  UNL1        0.1032
     17 N          61.3520   88.5319   10.3301 N.ar    1  UNL1       -0.1695
     18 N          60.7502   88.0905    9.0289 N.ar    1  UNL1       -0.2529
     19 C          60.0140   88.9639    8.0567 C.3     1  UNL1        0.1533
     20 N          63.3182   90.4399   15.8654 N.pl3   1  UNL1       -0.2825
     21 H          62.6474   90.9812   16.3410 H       1  UNL1        0.1551
     22 C          64.2956   91.1007   14.9392 C.ar    1  UNL1        0.0518
     23 C          64.0009   91.1808   13.4707 C.ar    1  UNL1        0.0148
     24 C          64.9783   91.8417   12.5445 C.ar    1  UNL1        0.0026
     25 C          66.2505   92.4225   13.0868 C.ar    1  UNL1        0.0200
     26 C          66.5452   92.3425   14.5553 C.ar    1  UNL1        0.1229
     27 C          65.5678   91.6816   15.4815 C.ar    1  UNL1        0.0346
     28 S          67.8175   92.9233   15.0977 S.O2    1  UNL1        0.0572
     29 N          69.0896   93.5041   15.6400 N.3     1  UNL1       -0.2035
     30 O          68.5444   92.4862   13.8606 O.2     1  UNL1       -0.1532
     31 O          67.0905   93.3604   16.3348 O.2     1  UNL1       -0.1532
     32 H          69.8441   93.3555   14.9698 H       1  UNL1        0.1442
     33 H          69.3232   93.0473   16.5216 H       1  UNL1        0.1442
@<TRIPOS>BOND
     1     9    10    1
     2    10    11   ar
     3    11    12   ar
     4    12    13   ar
     5    13    14   ar
     6    14     7    1
     7     7     8    1
     8     7     1    1
     9     1     2   ar
    10     2     3   ar
    11     3     4   ar
    12     4     5   ar
    13     5    20    1
    14    20    22    1
    15    22    23   ar
    16    23    24   ar
    17    24    25   ar
    18    25    26   ar
    19    26    28    1
    20    28    29    1
    21    28    30    2
    22    28    31    2
    23    26    27   ar
    24     5     6   ar
    25    14    15   ar
    26    15    16   ar
    27    16    17   ar
    28    17    18   ar
    29    18    19    1
    30    18    10   ar
    31    16    11   ar
    32     6     1   ar
    33    27    22   ar
    34    20    21    1
    35    29    32    1
    36    29    33    1
