@<TRIPOS>MOLECULE
*****
 37 40 0 0 0
SMALL
GASTEIGER

@<TRIPOS>ATOM
      1 N          62.2379   88.6528   10.8544 N.pl3   1  UNL1       -0.2777
      2 C          62.3706   87.2019   11.2112 C.3     1  UNL1        0.0936
      3 C          61.5918   86.1687   10.4523 C.3     1  UNL1        0.0221
      4 C          60.6802   86.5864    9.3367 C.3     1  UNL1        0.0126
      5 C          60.5474   88.0373    8.9799 C.3     1  UNL1        0.0963
      6 C          61.3263   89.0705    9.7388 C.3     1  UNL1        0.1026
      7 C          64.6023   91.7441   11.6312 C.ar    1  UNL1        0.1361
      8 C          64.5745   91.7524   13.1309 C.ar    1  UNL1        0.0575
      9 C          63.7678   90.7276   13.8718 C.ar    1  UNL1        0.1582
     10 N          62.9890   89.6944   13.1130 N.ar    1  UNL1       -0.2096
     11 C          63.0168   89.6861   11.6133 C.ar    1  UNL1        0.2212
     12 N          63.8235   90.7109   10.8724 N.ar    1  UNL1       -0.1987
     13 C          67.8291   95.8436    8.6677 C.3     1  UNL1        0.0897
     14 N          67.0224   94.8187    9.4086 N.3     1  UNL1       -0.2686
     15 C          67.4648   93.3856    9.4263 C.3     1  UNL1        0.0939
     16 C          66.6581   92.3607   10.1672 C.3     1  UNL1        0.1095
     17 N          65.4090   92.7690   10.8904 N.pl3   1  UNL1       -0.2903
     18 C          64.9666   94.2021   10.8727 C.3     1  UNL1        0.1095
     19 C          65.7733   95.2270   10.1318 C.3     1  UNL1        0.0939
     20 C          63.7400   90.7359   15.3716 C.3     1  UNL1        0.4350
     21 F          63.7123   90.7443   16.8713 F       1  UNL1       -0.1644
     22 F          62.6234   89.7345   15.3565 F       1  UNL1       -0.1644
     23 F          64.8566   91.7374   15.3866 F       1  UNL1       -0.1644
     24 C          59.6359   88.4550    7.8643 C.2     1  UNL1        0.2237
     25 O          58.4057   87.6523    7.5605 O.2     1  UNL1       -0.2751
     26 N          59.9545   89.6754    7.0526 N.am    1  UNL1       -0.3040
     27 H          60.7620   90.2023    7.2520 H       1  UNL1        0.1494
     28 C          59.0430   90.0932    5.9369 C.3     1  UNL1        0.0941
     29 C          59.0918   91.4986    5.4149 C.3     1  UNL1        0.0476
     30 C          60.1064   91.8785    4.3776 C.ar    1  UNL1       -0.0204
     31 C          59.7692   92.9084    3.3404 C.ar    1  UNL1       -0.0035
     32 C          60.7838   93.2883    2.3031 C.ar    1  UNL1        0.0100
     33 C          62.1357   92.6384    2.3028 C.ar    1  UNL1        0.0684
     34 C          62.4729   91.6085    3.3399 C.ar    1  UNL1        0.0100
     35 C          61.4583   91.2285    4.3773 C.ar    1  UNL1       -0.0035
     36 C          63.1504   93.0183    1.2654 C.1     1  UNL1        0.1004
     37 N          64.1649   93.3983    0.2280 N.1     1  UNL1       -0.1908
@<TRIPOS>BOND
     1    13    14    1
     2    14    15    1
     3    15    16    1
     4    16    17    1
     5    17     7    1
     6     7     8   ar
     7     8     9   ar
     8     9    20    1
     9    20    21    1
    10    20    22    1
    11    20    23    1
    12     9    10   ar
    13    10    11   ar
    14    11     1    1
    15     1     2    1
    16     2     3    1
    17     3     4    1
    18     4     5    1
    19     5    24    1
    20    24    25    2
    21    24    26   am
    22    26    28    1
    23    28    29    1
    24    29    30    1
    25    30    31   ar
    26    31    32   ar
    27    32    33   ar
    28    33    36    1
    29    36    37    3
    30    33    34   ar
    31    34    35   ar
    32     5     6    1
    33    11    12   ar
    34    17    18    1
    35    18    19    1
    36    19    14    1
    37    12     7   ar
    38     6     1    1
    39    35    30   ar
    40    26    27    1
@<TRIPOS>MOLECULE
*****
 37 40 0 0 0
SMALL
GASTEIGER

@<TRIPOS>ATOM
      1 N          62.4055   86.6037   10.1936 N.pl3   1  UNL1       -0.2777
      2 C          62.3575   86.5867    8.6944 C.3     1  UNL1        0.0936
      3 C          62.7323   85.3420    7.9461 C.3     1  UNL1        0.0221
      4 C          63.1552   84.1141    8.6968 C.3     1  UNL1        0.0126
      5 C          63.2033   84.1311   10.1960 C.3     1  UNL1        0.0963
      6 C          62.8285   85.3759   10.9443 C.3     1  UNL1        0.1026
      7 C          62.7262   89.9831   12.2495 C.ar    1  UNL1        0.1361
      8 C          61.2811   90.3380   12.4386 C.ar    1  UNL1        0.0575
      9 C          60.2109   89.4482   11.8793 C.ar    1  UNL1        0.1582
     10 N          60.5856   88.2034   11.1310 N.ar    1  UNL1       -0.2096
     11 C          62.0307   87.8485   10.9419 C.ar    1  UNL1        0.2212
     12 N          63.1010   88.7383   11.5012 N.ar    1  UNL1       -0.1987
     13 C          67.0072   93.5424   14.4865 C.3     1  UNL1        0.0897
     14 N          65.9370   92.6525   13.9273 N.3     1  UNL1       -0.2686
     15 C          65.5512   92.7607   12.4818 C.3     1  UNL1        0.0939
     16 C          64.4810   91.8709   11.9225 C.3     1  UNL1        0.1095
     17 N          63.7964   90.8729   12.8088 N.pl3   1  UNL1       -0.2903
     18 C          64.1822   90.7648   14.2542 C.3     1  UNL1        0.1095
     19 C          65.2524   91.6546   14.8135 C.3     1  UNL1        0.0939
     20 C          58.7657   89.8032   12.0685 C.3     1  UNL1        0.4350
     21 F          57.3207   90.1582   12.2576 F       1  UNL1       -0.1644
     22 F          58.9845   91.0888   11.3273 F       1  UNL1       -0.1644
     23 F          58.5470   88.5176   12.8096 F       1  UNL1       -0.1644
     24 C          63.6262   82.9033   10.9467 C.2     1  UNL1        0.2237
     25 O          65.0833   82.6248   11.1690 O.2     1  UNL1       -0.2751
     26 N          62.5921   81.9540   11.4752 N.am    1  UNL1       -0.3040
     27 H          61.6357   82.1368   11.3293 H       1  UNL1        0.1494
     28 C          63.0149   80.7262   12.2260 C.3     1  UNL1        0.0941
     29 C          63.4258   80.8312   13.6648 C.3     1  UNL1        0.0476
     30 C          63.3455   82.1509   14.3733 C.ar    1  UNL1       -0.0204
     31 C          64.5908   82.9541   14.6062 C.ar    1  UNL1       -0.0035
     32 C          64.5105   84.2738   15.3147 C.ar    1  UNL1        0.0100
     33 C          63.1850   84.7904   15.7901 C.ar    1  UNL1        0.0684
     34 C          61.9397   83.9873   15.5572 C.ar    1  UNL1        0.0100
     35 C          62.0199   82.6675   14.8487 C.ar    1  UNL1       -0.0035
     36 C          63.1047   86.1102   16.4986 C.1     1  UNL1        0.1004
     37 N          63.0245   87.4299   17.2070 N.1     1  UNL1       -0.1908
@<TRIPOS>BOND
     1    13    14    1
     2    14    15    1
     3    15    16    1
     4    16    17    1
     5    17     7    1
     6     7     8   ar
     7     8     9   ar
     8     9    20    1
     9    20    21    1
    10    20    22    1
    11    20    23    1
    12     9    10   ar
    13    10    11   ar
    14    11     1    1
    15     1     2    1
    16     2     3    1
    17     3     4    1
    18     4     5    1
    19     5    24    1
    20    24    25    2
    21    24    26   am
    22    26    28    1
    23    28    29    1
    24    29    30    1
    25    30    31   ar
    26    31    32   ar
    27    32    33   ar
    28    33    36    1
    29    36    37    3
    30    33    34   ar
    31    34    35   ar
    32     5     6    1
    33    11    12   ar
    34    17    18    1
    35    18    19    1
    36    19    14    1
    37    12     7   ar
    38     6     1    1
    39    35    30   ar
    40    26    27    1
@<TRIPOS>MOLECULE
*****
 37 40 0 0 0
SMALL
GASTEIGER

@<TRIPOS>ATOM
      1 N          63.8594   89.7675   13.8706 N.pl3   1  UNL1       -0.2777
      2 C          63.5319   89.7404   15.3342 C.3     1  UNL1        0.0936
      3 C          64.1146   90.7736   16.2524 C.3     1  UNL1        0.0221
      4 C          65.0249   91.8338   15.7069 C.3     1  UNL1        0.0126
      5 C          65.3523   91.8609   14.2434 C.3     1  UNL1        0.0963
      6 C          64.7695   90.8277   13.3252 C.3     1  UNL1        0.1026
      7 C          62.8460   86.2432   12.3531 C.ar    1  UNL1        0.1361
      8 C          62.1111   86.6679   11.1164 C.ar    1  UNL1        0.0575
      9 C          61.9590   88.1257   10.7977 C.ar    1  UNL1        0.1582
     10 N          62.5417   89.1589   11.7157 N.ar    1  UNL1       -0.2096
     11 C          63.2766   88.7343   12.9525 C.ar    1  UNL1        0.2212
     12 N          63.4287   87.2764   13.2712 N.ar    1  UNL1       -0.1987
     13 C          63.4545   80.4119   13.6279 C.3     1  UNL1        0.0897
     14 N          63.3024   81.8697   13.3092 N.3     1  UNL1       -0.2686
     15 C          63.5769   82.9006   14.3637 C.3     1  UNL1        0.0939
     16 C          63.4248   84.3584   14.0450 C.3     1  UNL1        0.1095
     17 N          62.9981   84.7854   12.6718 N.pl3   1  UNL1       -0.2903
     18 C          62.7236   83.7545   11.6174 C.3     1  UNL1        0.1095
     19 C          62.8757   82.2967   11.9361 C.3     1  UNL1        0.0939
     20 C          61.2241   88.5503    9.5608 C.3     1  UNL1        0.4350
     21 F          60.4892   88.9749    8.3241 F       1  UNL1       -0.1644
     22 F          62.2025   89.6701    9.3638 F       1  UNL1       -0.1644
     23 F          60.2457   87.4306    9.7578 F       1  UNL1       -0.1644
     24 C          66.2625   92.9211   13.6979 C.2     1  UNL1        0.2237
     25 O          67.6876   92.9964   14.1598 O.2     1  UNL1       -0.2751
     26 N          65.7475   93.9059   12.6905 N.am    1  UNL1       -0.3040
     27 H          64.8122   93.8565   12.3874 H       1  UNL1        0.1494
     28 C          66.6577   94.9662   12.1450 C.3     1  UNL1        0.0941
     29 C          66.0810   96.2191   11.5555 C.3     1  UNL1        0.0476
     30 C          65.9266   96.3463   10.0689 C.ar    1  UNL1       -0.0204
     31 C          67.0989   96.0912    9.1685 C.ar    1  UNL1       -0.0035
     32 C          66.9445   96.2185    7.6820 C.ar    1  UNL1        0.0100
     33 C          65.6178   96.6008    7.0957 C.ar    1  UNL1        0.0684
     34 C          64.4455   96.8559    7.9960 C.ar    1  UNL1        0.0100
     35 C          64.5999   96.7287    9.4827 C.ar    1  UNL1       -0.0035
     36 C          65.4635   96.7281    5.6090 C.1     1  UNL1        0.1004
     37 N          65.3092   96.8553    4.1225 N.1     1  UNL1       -0.1908
@<TRIPOS>BOND
     1    13    14    1
     2    14    15    1
     3    15    16    1
     4    16    17    1
     5    17     7    1
     6     7     8   ar
     7     8     9   ar
     8     9    20    1
     9    20    21    1
    10    20    22    1
    11    20    23    1
    12     9    10   ar
    13    10    11   ar
    14    11     1    1
    15     1     2    1
    16     2     3    1
    17     3     4    1
    18     4     5    1
    19     5    24    1
    20    24    25    2
    21    24    26   am
    22    26    28    1
    23    28    29    1
    24    29    30    1
    25    30    31   ar
    26    31    32   ar
    27    32    33   ar
    28    33    36    1
    29    36    37    3
    30    33    34   ar
    31    34    35   ar
    32     5     6    1
    33    11    12   ar
    34    17    18    1
    35    18    19    1
    36    19    14    1
    37    12     7   ar
    38     6     1    1
    39    35    30   ar
    40    26    27    1
@<TRIPOS>MOLECULE
*****
 37 40 0 0 0
SMALL
GASTEIGER

@<TRIPOS>ATOM
      1 N          63.7805   87.7486   15.2209 N.pl3   1  UNL1       -0.2777
      2 C          63.3561   87.8121   16.6583 C.3     1  UNL1        0.0936
      3 C          63.0400   86.5492   17.4034 C.3     1  UNL1        0.0221
      4 C          63.1482   85.2228   16.7112 C.3     1  UNL1        0.0126
      5 C          63.5725   85.1594   15.2738 C.3     1  UNL1        0.0963
      6 C          63.8887   86.4223   14.5287 C.3     1  UNL1        0.1026
      7 C          65.4940   91.1877   14.2276 C.ar    1  UNL1        0.1361
      8 C          64.7289   91.5373   12.9857 C.ar    1  UNL1        0.0575
      9 C          63.6476   90.6241   12.4889 C.ar    1  UNL1        0.1582
     10 N          63.3314   89.3612   13.2339 N.ar    1  UNL1       -0.2096
     11 C          64.0966   89.0116   14.4758 C.ar    1  UNL1        0.2212
     12 N          65.1779   89.9248   14.9726 N.ar    1  UNL1       -0.1987
     13 C          69.8191   94.8406   16.2148 C.3     1  UNL1        0.0897
     14 N          68.7378   93.9274   15.7180 N.3     1  UNL1       -0.2686
     15 C          68.7678   92.4693   16.0686 C.3     1  UNL1        0.0939
     16 C          67.6866   91.5560   15.5718 C.3     1  UNL1        0.1095
     17 N          66.5753   92.1009   14.7244 N.pl3   1  UNL1       -0.2903
     18 C          66.5453   93.5590   14.3738 C.3     1  UNL1        0.1095
     19 C          67.6265   94.4723   14.8707 C.3     1  UNL1        0.0939
     20 C          62.8824   90.9738   11.2470 C.3     1  UNL1        0.4350
     21 F          62.1173   91.3235   10.0051 F       1  UNL1       -0.1644
     22 F          61.6581   90.3215   11.8175 F       1  UNL1       -0.1644
     23 F          64.1067   91.6261   10.6764 F       1  UNL1       -0.1644
     24 C          63.6807   83.8331   14.5816 C.2     1  UNL1        0.2237
     25 O          62.8088   82.6902   15.0100 O.2     1  UNL1       -0.2751
     26 N          64.6609   83.6498   13.4610 N.am    1  UNL1       -0.3040
     27 H          65.2331   84.3999   13.1799 H       1  UNL1        0.1494
     28 C          64.7691   82.3234   12.7688 C.3     1  UNL1        0.0941
     29 C          64.2690   82.1680   11.3632 C.3     1  UNL1        0.0476
     30 C          63.5235   83.2904   10.7040 C.ar    1  UNL1       -0.0204
     31 C          63.8447   83.6758    9.2904 C.ar    1  UNL1       -0.0035
     32 C          63.0992   84.7982    8.6312 C.ar    1  UNL1        0.0100
     33 C          62.0326   85.5352    9.3856 C.ar    1  UNL1        0.0684
     34 C          61.7114   85.1498   10.7992 C.ar    1  UNL1        0.0100
     35 C          62.4569   84.0274   11.4585 C.ar    1  UNL1       -0.0035
     36 C          61.2871   86.6576    8.7264 C.1     1  UNL1        0.1004
     37 N          60.5416   87.7799    8.0672 N.1     1  UNL1       -0.1908
@<TRIPOS>BOND
     1    13    14    1
     2    14    15    1
     3    15    16    1
     4    16    17    1
     5    17     7    1
     6     7     8   ar
     7     8     9   ar
     8     9    20    1
     9    20    21    1
    10    20    22    1
    11    20    23    1
    12     9    10   ar
    13    10    11   ar
    14    11     1    1
    15     1     2    1
    16     2     3    1
    17     3     4    1
    18     4     5    1
    19     5    24    1
    20    24    25    2
    21    24    26   am
    22    26    28    1
    23    28    29    1
    24    29    30    1
    25    30    31   ar
    26    31    32   ar
    27    32    33   ar
    28    33    36    1
    29    36    37    3
    30    33    34   ar
    31    34    35   ar
    32     5     6    1
    33    11    12   ar
    34    17    18    1
    35    18    19    1
    36    19    14    1
    37    12     7   ar
    38     6     1    1
    39    35    30   ar
    40    26    27    1
@<TRIPOS>MOLECULE
*****
 37 40 0 0 0
SMALL
GASTEIGER

@<TRIPOS>ATOM
      1 N          63.9903   90.8216   14.0634 N.pl3   1  UNL1       -0.2777
      2 C          63.6853   90.2483   15.4155 C.3     1  UNL1        0.0936
      3 C          62.4545   89.4147   15.6164 C.3     1  UNL1        0.0221
      4 C          61.5288   89.1545   14.4652 C.3     1  UNL1        0.0126
      5 C          61.8338   89.7278   13.1131 C.3     1  UNL1        0.0963
      6 C          63.0646   90.5614   12.9122 C.3     1  UNL1        0.1026
      7 C          66.5765   93.3620   12.4483 C.ar    1  UNL1        0.1361
      8 C          67.6826   93.3223   13.4607 C.ar    1  UNL1        0.0575
      9 C          67.5580   92.4491   14.6739 C.ar    1  UNL1        0.1582
     10 N          66.3273   91.6156   14.8748 N.ar    1  UNL1       -0.2096
     11 C          65.2212   91.6552   13.8625 C.ar    1  UNL1        0.2212
     12 N          65.3458   92.5284   12.6492 N.ar    1  UNL1       -0.1987
     13 C          67.0750   96.8548    7.5953 C.3     1  UNL1        0.0897
     14 N          66.9503   95.9816    8.8086 N.3     1  UNL1       -0.2686
     15 C          66.3037   96.5142   10.0527 C.3     1  UNL1        0.0939
     16 C          66.1791   95.6410   11.2660 C.3     1  UNL1        0.1095
     17 N          66.7011   94.2352   11.2351 N.pl3   1  UNL1       -0.2903
     18 C          67.3478   93.7025    9.9909 C.3     1  UNL1        0.1095
     19 C          67.4724   94.5757    8.7776 C.3     1  UNL1        0.0939
     20 C          68.6642   92.4095   15.6863 C.3     1  UNL1        0.4350
     21 F          69.7704   92.3699   16.6985 F       1  UNL1       -0.1644
     22 F          67.6523   92.2972   16.7877 F       1  UNL1       -0.1644
     23 F          69.6762   92.5218   14.5848 F       1  UNL1       -0.1644
     24 C          60.9081   89.4676   11.9619 C.2     1  UNL1        0.2237
     25 O          59.4688   89.1315   12.2179 O.2     1  UNL1       -0.2751
     26 N          61.4217   89.5435   10.5546 N.am    1  UNL1       -0.3040
     27 H          62.3663   89.7641   10.3865 H       1  UNL1        0.1494
     28 C          60.4959   89.2833    9.4033 C.3     1  UNL1        0.0941
     29 C          60.2365   87.8763    8.9528 C.3     1  UNL1        0.0476
     30 C          61.1674   86.7739    9.3625 C.ar    1  UNL1       -0.0204
     31 C          62.0700   86.1381    8.3469 C.ar    1  UNL1       -0.0035
     32 C          63.0010   85.0357    8.7567 C.ar    1  UNL1        0.0100
     33 C          63.0295   84.5690   10.1819 C.ar    1  UNL1        0.0684
     34 C          62.1270   85.2047   11.1974 C.ar    1  UNL1        0.0100
     35 C          61.1959   86.3072   10.7877 C.ar    1  UNL1       -0.0035
     36 C          63.9605   83.4665   10.5916 C.1     1  UNL1        0.1004
     37 N          64.8915   82.3641   11.0013 N.1     1  UNL1       -0.1908
@<TRIPOS>BOND
     1    13    14    1
     2    14    15    1
     3    15    16    1
     4    16    17    1
     5    17     7    1
     6     7     8   ar
     7     8     9   ar
     8     9    20    1
     9    20    21    1
    10    20    22    1
    11    20    23    1
    12     9    10   ar
    13    10    11   ar
    14    11     1    1
    15     1     2    1
    16     2     3    1
    17     3     4    1
    18     4     5    1
    19     5    24    1
    20    24    25    2
    21    24    26   am
    22    26    28    1
    23    28    29    1
    24    29    30    1
    25    30    31   ar
    26    31    32   ar
    27    32    33   ar
    28    33    36    1
    29    36    37    3
    30    33    34   ar
    31    34    35   ar
    32     5     6    1
    33    11    12   ar
    34    17    18    1
    35    18    19    1
    36    19    14    1
    37    12     7   ar
    38     6     1    1
    39    35    30   ar
    40    26    27    1
@<TRIPOS>MOLECULE
*****
 37 40 0 0 0
SMALL
GASTEIGER

@<TRIPOS>ATOM
      1 N          61.4529   92.9935    0.6672 N.pl3   1  UNL1       -0.2777
      2 C          62.9285   92.8198    0.8732 C.3     1  UNL1        0.0936
      3 C          63.4510   92.3564    2.2007 C.3     1  UNL1        0.0221
      4 C          62.4978   92.0667    3.3222 C.3     1  UNL1        0.0126
      5 C          61.0223   92.2405    3.1161 C.3     1  UNL1        0.0963
      6 C          60.4998   92.7039    1.7886 C.3     1  UNL1        0.1026
      7 C          58.9804   94.3614   -2.1195 C.ar    1  UNL1        0.1361
      8 C          59.8856   94.3837   -3.3154 C.ar    1  UNL1        0.0575
      9 C          61.3132   93.9427   -3.1837 C.ar    1  UNL1        0.1582
     10 N          61.8357   93.4793   -1.8563 N.ar    1  UNL1       -0.2096
     11 C          60.9305   93.4570   -0.6604 C.ar    1  UNL1        0.2212
     12 N          59.5029   93.8980   -0.7920 N.ar    1  UNL1       -0.1987
     13 C          53.2699   96.1257   -2.6460 C.3     1  UNL1        0.0897
     14 N          54.6975   95.6847   -2.5144 N.3     1  UNL1       -0.2686
     15 C          55.0188   94.3620   -1.8842 C.3     1  UNL1        0.0939
     16 C          56.4464   93.9209   -1.7525 C.3     1  UNL1        0.1095
     17 N          57.5528   94.8025   -2.2511 N.pl3   1  UNL1       -0.2903
     18 C          57.2315   96.1252   -2.8814 C.3     1  UNL1        0.1095
     19 C          55.8039   96.5663   -3.0130 C.3     1  UNL1        0.0939
     20 C          62.2184   93.9650   -4.3797 C.3     1  UNL1        0.4350
     21 F          63.1235   93.9874   -5.5756 F       1  UNL1       -0.1644
     22 F          63.0395   92.8629   -3.7788 F       1  UNL1       -0.1644
     23 F          61.3972   95.0671   -4.9806 F       1  UNL1       -0.1644
     24 C          60.0691   91.9508    4.2376 C.2     1  UNL1        0.2237
     25 O          58.8543   92.8094    4.4300 O.2     1  UNL1       -0.2751
     26 N          60.3308   90.8026    5.1665 N.am    1  UNL1       -0.3040
     27 H          61.1282   90.2391    5.0402 H       1  UNL1        0.1494
     28 C          59.3777   90.5128    6.2880 C.3     1  UNL1        0.0941
     29 C          59.0106   89.0952    6.6130 C.3     1  UNL1        0.0476
     30 C          59.6874   88.3869    7.7488 C.ar    1  UNL1       -0.0204
     31 C          59.8205   86.8929    7.7283 C.ar    1  UNL1       -0.0035
     32 C          60.4973   86.1845    8.8641 C.ar    1  UNL1        0.0100
     33 C          61.0409   86.9701   10.0205 C.ar    1  UNL1        0.0684
     34 C          60.9079   88.4640   10.0411 C.ar    1  UNL1        0.0100
     35 C          60.2311   89.1724    8.9052 C.ar    1  UNL1       -0.0035
     36 C          61.7177   86.2616   11.1564 C.1     1  UNL1        0.1004
     37 N          62.3945   85.5532   12.2922 N.1     1  UNL1       -0.1908
@<TRIPOS>BOND
     1    13    14    1
     2    14    15    1
     3    15    16    1
     4    16    17    1
     5    17     7    1
     6     7     8   ar
     7     8     9   ar
     8     9    20    1
     9    20    21    1
    10    20    22    1
    11    20    23    1
    12     9    10   ar
    13    10    11   ar
    14    11     1    1
    15     1     2    1
    16     2     3    1
    17     3     4    1
    18     4     5    1
    19     5    24    1
    20    24    25    2
    21    24    26   am
    22    26    28    1
    23    28    29    1
    24    29    30    1
    25    30    31   ar
    26    31    32   ar
    27    32    33   ar
    28    33    36    1
    29    36    37    3
    30    33    34   ar
    31    34    35   ar
    32     5     6    1
    33    11    12   ar
    34    17    18    1
    35    18    19    1
    36    19    14    1
    37    12     7   ar
    38     6     1    1
    39    35    30   ar
    40    26    27    1
@<TRIPOS>MOLECULE
*****
 37 40 0 0 0
SMALL
GASTEIGER

@<TRIPOS>ATOM
      1 N          63.3647   89.5846   14.3073 N.pl3   1  UNL1       -0.2777
      2 C          63.3518   90.5559   15.4503 C.3     1  UNL1        0.0936
      3 C          63.3695   90.0519   16.8630 C.3     1  UNL1        0.0221
      4 C          63.4001   88.5767   17.1328 C.3     1  UNL1        0.0126
      5 C          63.4129   87.6054   15.9898 C.3     1  UNL1        0.0963
      6 C          63.3952   88.1094   14.5770 C.3     1  UNL1        0.1026
      7 C          64.2623   91.6910   11.0658 C.ar    1  UNL1        0.1361
      8 C          63.3117   91.0966   10.0693 C.ar    1  UNL1        0.0575
      9 C          62.3787   89.9983   10.4855 C.ar    1  UNL1        0.1582
     10 N          62.3964   89.4942   11.8981 N.ar    1  UNL1       -0.2096
     11 C          63.3470   90.0886   12.8946 C.ar    1  UNL1        0.2212
     12 N          64.2799   91.1870   12.4784 N.ar    1  UNL1       -0.1987
     13 C          67.9941   96.0844    9.4011 C.3     1  UNL1        0.0897
     14 N          67.0611   94.9861    9.8173 N.3     1  UNL1       -0.2686
     15 C          67.4982   93.5544    9.7218 C.3     1  UNL1        0.0939
     16 C          66.5653   92.4560   10.1380 C.3     1  UNL1        0.1095
     17 N          65.1952   92.7893   10.6496 N.pl3   1  UNL1       -0.2903
     18 C          64.7581   94.2210   10.7451 C.3     1  UNL1        0.1095
     19 C          65.6911   95.3194   10.3290 C.3     1  UNL1        0.0939
     20 C          61.4280   89.4039    9.4889 C.3     1  UNL1        0.4350
     21 F          60.4775   88.8095    8.4924 F       1  UNL1       -0.1644
     22 F          60.5083   90.5753    9.6676 F       1  UNL1       -0.1644
     23 F          62.3478   88.2325    9.3102 F       1  UNL1       -0.1644
     24 C          63.4435   86.1302   16.2594 C.2     1  UNL1        0.2237
     25 O          62.7460   85.5735   17.4651 O.2     1  UNL1       -0.2751
     26 N          64.1715   85.2116   15.3234 N.am    1  UNL1       -0.3040
     27 H          64.6293   85.5770   14.5321 H       1  UNL1        0.1494
     28 C          64.2021   83.7363   15.5931 C.3     1  UNL1        0.0941
     29 C          63.8217   82.7683   14.5122 C.3     1  UNL1        0.0476
     30 C          63.6362   83.2512   13.1043 C.ar    1  UNL1       -0.0204
     31 C          64.4478   82.6535   11.9933 C.ar    1  UNL1       -0.0035
     32 C          64.2622   83.1364   10.5853 C.ar    1  UNL1        0.0100
     33 C          63.2651   84.2169   10.2883 C.ar    1  UNL1        0.0684
     34 C          62.4535   84.8145   11.3992 C.ar    1  UNL1        0.0100
     35 C          62.6390   84.3317   12.8072 C.ar    1  UNL1       -0.0035
     36 C          63.0796   84.6998    8.8803 C.1     1  UNL1        0.1004
     37 N          62.8941   85.1827    7.4723 N.1     1  UNL1       -0.1908
@<TRIPOS>BOND
     1    13    14    1
     2    14    15    1
     3    15    16    1
     4    16    17    1
     5    17     7    1
     6     7     8   ar
     7     8     9   ar
     8     9    20    1
     9    20    21    1
    10    20    22    1
    11    20    23    1
    12     9    10   ar
    13    10    11   ar
    14    11     1    1
    15     1     2    1
    16     2     3    1
    17     3     4    1
    18     4     5    1
    19     5    24    1
    20    24    25    2
    21    24    26   am
    22    26    28    1
    23    28    29    1
    24    29    30    1
    25    30    31   ar
    26    31    32   ar
    27    32    33   ar
    28    33    36    1
    29    36    37    3
    30    33    34   ar
    31    34    35   ar
    32     5     6    1
    33    11    12   ar
    34    17    18    1
    35    18    19    1
    36    19    14    1
    37    12     7   ar
    38     6     1    1
    39    35    30   ar
    40    26    27    1
@<TRIPOS>MOLECULE
*****
 37 40 0 0 0
SMALL
GASTEIGER

@<TRIPOS>ATOM
      1 N          62.2871   89.5034   10.2688 N.pl3   1  UNL1       -0.2777
      2 C          61.1241   90.1027    9.5349 C.3     1  UNL1        0.0936
      3 C          60.2853   89.2471    8.6326 C.3     1  UNL1        0.0221
      4 C          60.6093   87.7922    8.4640 C.3     1  UNL1        0.0126
      5 C          61.7722   87.1930    9.1978 C.3     1  UNL1        0.0963
      6 C          62.6111   88.0486   10.1002 C.3     1  UNL1        0.1026
      7 C          64.7710   92.3427   11.5011 C.ar    1  UNL1        0.1361
      8 C          64.8036   92.0703   12.9758 C.ar    1  UNL1        0.0575
      9 C          63.9974   90.9423   13.5481 C.ar    1  UNL1        0.1582
     10 N          63.1586   90.0866   12.6458 N.ar    1  UNL1       -0.2096
     11 C          63.1259   90.3591   11.1712 C.ar    1  UNL1        0.2212
     12 N          63.9322   91.4871   10.5988 N.ar    1  UNL1       -0.1987
     13 C          67.9959   96.8548    9.2117 C.3     1  UNL1        0.0897
     14 N          67.1897   95.7267    9.7841 N.3     1  UNL1       -0.2686
     15 C          66.6259   95.8354   11.1698 C.3     1  UNL1        0.0939
     16 C          65.8197   94.7074   11.7422 C.3     1  UNL1        0.1095
     17 N          65.5772   93.4707   10.9288 N.pl3   1  UNL1       -0.2903
     18 C          66.1409   93.3620    9.5430 C.3     1  UNL1        0.1095
     19 C          66.9472   94.4900    8.9707 C.3     1  UNL1        0.0939
     20 C          64.0301   90.6699   15.0229 C.3     1  UNL1        0.4350
     21 F          64.0627   90.3975   16.4975 F       1  UNL1       -0.1644
     22 F          64.6141   92.0308   15.2614 F       1  UNL1       -0.1644
     23 F          63.4461   89.3090   14.7844 F       1  UNL1       -0.1644
     24 C          62.0963   85.7382    9.0293 C.2     1  UNL1        0.2237
     25 O          61.3748   84.9238    7.9967 O.2     1  UNL1       -0.2751
     26 N          63.1419   85.0977    9.8933 N.am    1  UNL1       -0.3040
     27 H          63.6154   85.6323   10.5710 H       1  UNL1        0.1494
     28 C          63.4660   83.6428    9.7248 C.3     1  UNL1        0.0941
     29 C          63.6417   82.7690   10.9312 C.3     1  UNL1        0.0476
     30 C          63.4135   83.3302   12.3034 C.ar    1  UNL1       -0.0204
     31 C          64.2157   84.5066   12.7755 C.ar    1  UNL1       -0.0035
     32 C          63.9875   85.0678   14.1477 C.ar    1  UNL1        0.0100
     33 C          62.9572   84.4526   15.0478 C.ar    1  UNL1        0.0684
     34 C          62.1551   83.2763   14.5757 C.ar    1  UNL1        0.0100
     35 C          62.3833   82.7151   13.2035 C.ar    1  UNL1       -0.0035
     36 C          62.7291   85.0139   16.4201 C.1     1  UNL1        0.1004
     37 N          62.5010   85.5751   17.7923 N.1     1  UNL1       -0.1908
@<TRIPOS>BOND
     1    13    14    1
     2    14    15    1
     3    15    16    1
     4    16    17    1
     5    17     7    1
     6     7     8   ar
     7     8     9   ar
     8     9    20    1
     9    20    21    1
    10    20    22    1
    11    20    23    1
    12     9    10   ar
    13    10    11   ar
    14    11     1    1
    15     1     2    1
    16     2     3    1
    17     3     4    1
    18     4     5    1
    19     5    24    1
    20    24    25    2
    21    24    26   am
    22    26    28    1
    23    28    29    1
    24    29    30    1
    25    30    31   ar
    26    31    32   ar
    27    32    33   ar
    28    33    36    1
    29    36    37    3
    30    33    34   ar
    31    34    35   ar
    32     5     6    1
    33    11    12   ar
    34    17    18    1
    35    18    19    1
    36    19    14    1
    37    12     7   ar
    38     6     1    1
    39    35    30   ar
    40    26    27    1
@<TRIPOS>MOLECULE
*****
 37 40 0 0 0
SMALL
GASTEIGER

@<TRIPOS>ATOM
      1 N          60.5736   88.3327    8.9134 N.pl3   1  UNL1       -0.2777
      2 C          59.9371   86.9934    8.6871 C.3     1  UNL1        0.0936
      3 C          58.9546   86.8093    7.5688 C.3     1  UNL1        0.0221
      4 C          58.6085   87.9645    6.6766 C.3     1  UNL1        0.0126
      5 C          59.2450   89.3038    6.9029 C.3     1  UNL1        0.0963
      6 C          60.2276   89.4878    8.0213 C.3     1  UNL1        0.1026
      7 C          62.8936   87.5426   12.0348 C.ar    1  UNL1        0.1361
      8 C          63.5212   88.8848   12.2685 C.ar    1  UNL1        0.0575
      9 C          63.1663   90.0429   11.3837 C.ar    1  UNL1        0.1582
     10 N          62.1838   89.8589   10.2654 N.ar    1  UNL1       -0.2096
     11 C          61.5562   88.5167   10.0318 C.ar    1  UNL1        0.2212
     12 N          61.9111   87.3586   10.9165 N.ar    1  UNL1       -0.1987
     13 C          64.3132   82.9100   15.5737 C.3     1  UNL1        0.0897
     14 N          63.9583   84.0681   14.6890 N.3     1  UNL1       -0.2686
     15 C          63.1378   83.8443   13.4535 C.3     1  UNL1        0.0939
     16 C          62.7829   85.0024   12.5688 C.3     1  UNL1        0.1095
     17 N          63.2485   86.3845   12.9196 N.pl3   1  UNL1       -0.2903
     18 C          64.0690   86.6083   14.1551 C.3     1  UNL1        0.1095
     19 C          64.4239   85.4502   15.0398 C.3     1  UNL1        0.0939
     20 C          63.7940   91.3851   11.6174 C.3     1  UNL1        0.4350
     21 F          64.4217   92.7273   11.8510 F       1  UNL1       -0.1644
     22 F          64.1191   90.9878   13.0268 F       1  UNL1       -0.1644
     23 F          63.4689   91.7825   10.2080 F       1  UNL1       -0.1644
     24 C          58.8990   90.4590    6.0109 C.2     1  UNL1        0.2237
     25 O          57.4622   90.8147    5.7677 O.2     1  UNL1       -0.2751
     26 N          59.9897   91.2584    5.3620 N.am    1  UNL1       -0.3040
     27 H          60.9327   91.0249    5.5216 H       1  UNL1        0.1494
     28 C          59.6437   92.4136    4.4699 C.3     1  UNL1        0.0941
     29 C          59.8453   92.3032    2.9876 C.3     1  UNL1        0.0476
     30 C          61.0234   92.9679    2.3394 C.ar    1  UNL1       -0.0204
     31 C          60.8314   94.2253    1.5443 C.ar    1  UNL1       -0.0035
     32 C          62.0095   94.8900    0.8961 C.ar    1  UNL1        0.0100
     33 C          63.3796   94.2973    1.0429 C.ar    1  UNL1        0.0684
     34 C          63.5716   93.0399    1.8379 C.ar    1  UNL1        0.0100
     35 C          62.3934   92.3752    2.4862 C.ar    1  UNL1       -0.0035
     36 C          64.5577   94.9620    0.3946 C.1     1  UNL1        0.1004
     37 N          65.7358   95.6266   -0.2537 N.1     1  UNL1       -0.1908
@<TRIPOS>BOND
     1    13    14    1
     2    14    15    1
     3    15    16    1
     4    16    17    1
     5    17     7    1
     6     7     8   ar
     7     8     9   ar
     8     9    20    1
     9    20    21    1
    10    20    22    1
    11    20    23    1
    12     9    10   ar
    13    10    11   ar
    14    11     1    1
    15     1     2    1
    16     2     3    1
    17     3     4    1
    18     4     5    1
    19     5    24    1
    20    24    25    2
    21    24    26   am
    22    26    28    1
    23    28    29    1
    24    29    30    1
    25    30    31   ar
    26    31    32   ar
    27    32    33   ar
    28    33    36    1
    29    36    37    3
    30    33    34   ar
    31    34    35   ar
    32     5     6    1
    33    11    12   ar
    34    17    18    1
    35    18    19    1
    36    19    14    1
    37    12     7   ar
    38     6     1    1
    39    35    30   ar
    40    26    27    1
