@<TRIPOS>MOLECULE
*****
 36 39 0 0 0
SMALL
GASTEIGER

@<TRIPOS>ATOM
      1 N          64.3516   91.3008   15.4327 N.ar    1  UNL1       -0.2944
      2 C          65.4479   92.3052   15.6308 C.ar    1  UNL1        0.1798
      3 N          65.9031   92.7675   14.2783 N.ar    1  UNL1       -0.2194
      4 C          65.0881   92.0488   13.2443 C.ar    1  UNL1        0.1485
      5 C          65.0952   92.1026   11.7453 C.ar    1  UNL1        0.1543
      6 N          64.1434   91.2499   10.9597 N.ar    1  UNL1       -0.2102
      7 C          63.1846   90.3435   11.6731 C.ar    1  UNL1        0.1653
      8 N          63.1775   90.2897   13.1722 N.ar    1  UNL1       -0.2078
      9 C          64.1293   91.1423   13.9578 C.ar    1  UNL1        0.1672
     10 N          66.0540   93.0090   11.0319 N.pl3   1  UNL1       -0.2868
     11 C          67.1885   92.4278   10.2411 C.3     1  UNL1        0.1243
     12 C          68.1473   93.3341    9.5277 C.3     1  UNL1        0.1636
     13 O          67.9717   94.8219    9.6049 O.3     1  UNL1       -0.3501
     14 C          66.8373   95.4031   10.3957 C.3     1  UNL1        0.1636
     15 C          65.8784   94.4967   11.1091 C.3     1  UNL1        0.1243
     16 C          62.2328   89.4908   10.8875 C.ar    1  UNL1        0.0357
     17 C          61.1676   90.1329   10.0491 C.ar    1  UNL1        0.0030
     18 C          60.2159   89.2803    9.2635 C.ar    1  UNL1       -0.0001
     19 C          60.3293   87.7855    9.3163 C.ar    1  UNL1       -0.0019
     20 C          61.3946   87.1434   10.1547 C.ar    1  UNL1        0.0071
     21 C          62.3463   87.9961   10.9403 C.ar    1  UNL1        0.0012
     22 C          61.5081   85.6486   10.2075 C.3     1  UNL1        0.1636
     23 O          62.6413   85.0085   10.9533 O.3     1  UNL1       -0.3772
     24 H          63.4789   85.2194   10.5119 H       1  UNL1        0.2109
     25 C          63.6083   90.5812   16.5188 C.3     1  UNL1        0.1090
     26 C          63.0887   89.1945   16.2802 C.3     1  UNL1        0.0246
     27 C          63.0949   88.1894   17.3937 C.3     1  UNL1        0.0020
     28 C          62.5512   86.8106   17.1625 C.3     1  UNL1        0.0006
     29 C          63.4725   85.7000   16.7530 C.3     1  UNL1        0.0096
     30 C          64.3001   85.8322   15.5090 C.3     1  UNL1        0.0871
     31 O          62.5800   85.0200   13.7395 O.2     1  UNL1       -0.2730
     32 C          63.9717   85.0091   14.2987 C.2     1  UNL1        0.2443
     33 N          65.0352   84.1752   13.6477 N.am    1  UNL1       -0.1970
     34 O          64.7068   83.3522   12.4375 O.3     1  UNL1       -0.2952
     35 H          65.9487   84.1681   14.0148 H       1  UNL1        0.1822
     36 H          63.7718   83.4721   12.2089 H       1  UNL1        0.2414
@<TRIPOS>BOND
     1    31    32    2
     2    32    30    1
     3    30    29    1
     4    29    28    1
     5    28    27    1
     6    27    26    1
     7    26    25    1
     8    25     1    1
     9     1     2   ar
    10     2     3   ar
    11     3     4   ar
    12     4     5   ar
    13     5    10    1
    14    10    11    1
    15    11    12    1
    16    12    13    1
    17    13    14    1
    18    14    15    1
    19     5     6   ar
    20     6     7   ar
    21     7    16    1
    22    16    17   ar
    23    17    18   ar
    24    18    19   ar
    25    19    20   ar
    26    20    22    1
    27    22    23    1
    28    20    21   ar
    29     7     8   ar
    30     8     9   ar
    31    32    33   am
    32    33    34    1
    33     9     1   ar
    34     9     4   ar
    35    15    10    1
    36    21    16   ar
    37    23    24    1
    38    33    35    1
    39    34    36    1
@<TRIPOS>MOLECULE
*****
 36 39 0 0 0
SMALL
GASTEIGER

@<TRIPOS>ATOM
      1 N          64.0636   90.9340   15.4666 N.ar    1  UNL1       -0.2944
      2 C          65.0811   92.0113   15.6989 C.ar    1  UNL1        0.1798
      3 N          65.5493   92.5030   14.3613 N.ar    1  UNL1       -0.2194
      4 C          64.8211   91.7295   13.3024 C.ar    1  UNL1        0.1485
      5 C          64.8755   91.7829   11.8043 C.ar    1  UNL1        0.1543
      6 N          64.0116   90.8666   10.9894 N.ar    1  UNL1       -0.2102
      7 C          63.0935   89.8970   11.6724 C.ar    1  UNL1        0.1653
      8 N          63.0390   89.8435   13.1705 N.ar    1  UNL1       -0.2078
      9 C          63.9029   90.7598   13.9855 C.ar    1  UNL1        0.1672
     10 N          65.7937   92.7525   11.1212 N.pl3   1  UNL1       -0.2868
     11 C          66.9195   92.2462   10.2688 C.3     1  UNL1        0.1243
     12 C          67.8376   93.2158    9.5857 C.3     1  UNL1        0.1636
     13 O          67.6302   94.6918    9.7549 O.3     1  UNL1       -0.3501
     14 C          66.5046   95.1980   10.6073 C.3     1  UNL1        0.1636
     15 C          65.5863   94.2284   11.2904 C.3     1  UNL1        0.1243
     16 C          62.2296   88.9806   10.8574 C.ar    1  UNL1        0.0357
     17 C          62.2169   87.5086   11.1455 C.ar    1  UNL1        0.0030
     18 C          61.3530   86.5923   10.3305 C.ar    1  UNL1       -0.0001
     19 C          60.5019   87.1481    9.2274 C.ar    1  UNL1       -0.0019
     20 C          60.5145   88.6201    8.9394 C.ar    1  UNL1        0.0071
     21 C          61.3784   89.5364    9.7544 C.ar    1  UNL1        0.0012
     22 C          59.6634   89.1759    7.8363 C.3     1  UNL1        0.1636
     23 O          58.5796   88.3350    7.2292 O.3     1  UNL1       -0.3772
     24 H          58.9768   87.5821    6.7641 H       1  UNL1        0.2109
     25 C          63.3347   90.1657   16.5289 C.3     1  UNL1        0.1090
     26 C          63.1576   88.6824   16.3937 C.3     1  UNL1        0.0246
     27 C          62.9316   87.8397   17.6139 C.3     1  UNL1        0.0020
     28 C          62.5307   86.4016   17.4684 C.3     1  UNL1        0.0006
     29 C          63.4963   85.4084   16.8930 C.3     1  UNL1        0.0096
     30 C          63.6240   85.2614   15.4058 C.3     1  UNL1        0.0871
     31 O          62.5780   84.2015   13.2768 O.2     1  UNL1       -0.2730
     32 C          62.9994   84.0873   14.7118 C.2     1  UNL1        0.2443
     33 N          62.7964   82.7990   15.4529 N.am    1  UNL1       -0.1970
     34 O          62.1719   81.6250   14.7589 O.3     1  UNL1       -0.2952
     35 H          63.0730   82.7241   16.3948 H       1  UNL1        0.1822
     36 H          61.9604   81.8656   13.8434 H       1  UNL1        0.2414
@<TRIPOS>BOND
     1    31    32    2
     2    32    30    1
     3    30    29    1
     4    29    28    1
     5    28    27    1
     6    27    26    1
     7    26    25    1
     8    25     1    1
     9     1     2   ar
    10     2     3   ar
    11     3     4   ar
    12     4     5   ar
    13     5    10    1
    14    10    11    1
    15    11    12    1
    16    12    13    1
    17    13    14    1
    18    14    15    1
    19     5     6   ar
    20     6     7   ar
    21     7    16    1
    22    16    17   ar
    23    17    18   ar
    24    18    19   ar
    25    19    20   ar
    26    20    22    1
    27    22    23    1
    28    20    21   ar
    29     7     8   ar
    30     8     9   ar
    31    32    33   am
    32    33    34    1
    33     9     1   ar
    34     9     4   ar
    35    15    10    1
    36    21    16   ar
    37    23    24    1
    38    33    35    1
    39    34    36    1
@<TRIPOS>MOLECULE
*****
 36 39 0 0 0
SMALL
GASTEIGER

@<TRIPOS>ATOM
      1 N          62.0573   89.3854   10.3754 N.ar    1  UNL1       -0.2944
      2 C          62.2738   90.8627   10.5188 C.ar    1  UNL1        0.1798
      3 N          63.0312   91.0989   11.7918 N.ar    1  UNL1       -0.2194
      4 C          63.2828   89.7674   12.4352 C.ar    1  UNL1        0.1485
      5 C          63.9822   89.3825   13.7051 C.ar    1  UNL1        0.1543
      6 N          64.0797   87.9386   14.0996 N.ar    1  UNL1       -0.2102
      7 C          63.4778   86.8797   13.2243 C.ar    1  UNL1        0.1653
      8 N          62.7783   87.2646   11.9543 N.ar    1  UNL1       -0.2078
      9 C          62.6809   88.7085   11.5598 C.ar    1  UNL1        0.1672
     10 N          64.5841   90.4414   14.5805 N.pl3   1  UNL1       -0.2868
     11 C          65.9104   91.0448   14.2239 C.3     1  UNL1        0.1243
     12 C          66.5123   92.1037   15.0992 C.3     1  UNL1        0.1636
     13 O          65.7881   92.5594   16.3313 O.3     1  UNL1       -0.3501
     14 C          64.4619   91.9561   16.6879 C.3     1  UNL1        0.1636
     15 C          63.8599   90.8971   15.8125 C.3     1  UNL1        0.1243
     16 C          63.5753   85.4357   13.6189 C.ar    1  UNL1        0.0357
     17 C          64.2739   85.0508   14.8892 C.ar    1  UNL1        0.0030
     18 C          64.3714   83.6069   15.2837 C.ar    1  UNL1       -0.0001
     19 C          63.7702   82.5479   14.4079 C.ar    1  UNL1       -0.0019
     20 C          63.0716   82.9328   13.1375 C.ar    1  UNL1        0.0071
     21 C          62.9741   84.3767   12.7430 C.ar    1  UNL1        0.0012
     22 C          62.4705   81.8738   12.2617 C.3     1  UNL1        0.1636
     23 O          63.1953   81.4191   11.0295 O.3     1  UNL1       -0.3772
     24 H          63.2408   82.1497   10.3931 H       1  UNL1        0.2109
     25 C          61.3426   88.7045    9.2459 C.3     1  UNL1        0.1090
     26 C          60.1087   87.8962    9.5179 C.3     1  UNL1        0.0246
     27 C          59.4241   87.1723    8.3966 C.3     1  UNL1        0.0020
     28 C          59.0478   87.9108    7.1463 C.3     1  UNL1        0.0006
     29 C          59.1264   89.4082    7.1073 C.3     1  UNL1        0.0096
     30 C          59.2601   90.1183    5.7928 C.3     1  UNL1        0.0871
     31 O          58.4776   92.3533    4.7240 O.2     1  UNL1       -0.2730
     32 C          58.1556   91.0087    5.3056 C.2     1  UNL1        0.2443
     33 N          56.7291   90.5544    5.4000 N.am    1  UNL1       -0.1970
     34 O          55.6247   91.4448    4.9128 O.3     1  UNL1       -0.2952
     35 H          56.5178   89.6719    5.7818 H       1  UNL1        0.1822
     36 H          56.0021   92.2699    4.5698 H       1  UNL1        0.2414
@<TRIPOS>BOND
     1    31    32    2
     2    32    30    1
     3    30    29    1
     4    29    28    1
     5    28    27    1
     6    27    26    1
     7    26    25    1
     8    25     1    1
     9     1     2   ar
    10     2     3   ar
    11     3     4   ar
    12     4     5   ar
    13     5    10    1
    14    10    11    1
    15    11    12    1
    16    12    13    1
    17    13    14    1
    18    14    15    1
    19     5     6   ar
    20     6     7   ar
    21     7    16    1
    22    16    17   ar
    23    17    18   ar
    24    18    19   ar
    25    19    20   ar
    26    20    22    1
    27    22    23    1
    28    20    21   ar
    29     7     8   ar
    30     8     9   ar
    31    32    33   am
    32    33    34    1
    33     9     1   ar
    34     9     4   ar
    35    15    10    1
    36    21    16   ar
    37    23    24    1
    38    33    35    1
    39    34    36    1
@<TRIPOS>MOLECULE
*****
 36 39 0 0 0
SMALL
GASTEIGER

@<TRIPOS>ATOM
      1 N          63.7876   90.0649   12.8791 N.ar    1  UNL1       -0.2944
      2 C          63.1873   91.0441   11.9144 C.ar    1  UNL1        0.1798
      3 N          62.3266   90.2795   10.9529 N.ar    1  UNL1       -0.2194
      4 C          62.3949   88.8275   11.3233 C.ar    1  UNL1        0.1485
      5 C          61.7516   87.6091   10.7305 C.ar    1  UNL1        0.1543
      6 N          62.0112   86.2580   11.3281 N.ar    1  UNL1       -0.2102
      7 C          62.9141   86.1254   12.5185 C.ar    1  UNL1        0.1653
      8 N          63.5575   87.3439   13.1114 N.ar    1  UNL1       -0.2078
      9 C          63.2979   88.6949   12.5138 C.ar    1  UNL1        0.1672
     10 N          60.8487   87.7417    9.5401 N.pl3   1  UNL1       -0.2868
     11 C          60.5311   89.0995    8.9872 C.3     1  UNL1        0.1243
     12 C          59.6282   89.2321    7.7968 C.3     1  UNL1        0.1636
     13 O          59.0428   88.0070    7.1592 O.3     1  UNL1       -0.3501
     14 C          59.3603   86.6493    7.7121 C.3     1  UNL1        0.1636
     15 C          60.2633   86.5166    8.9026 C.3     1  UNL1        0.1243
     16 C          63.1737   84.7742   13.1161 C.ar    1  UNL1        0.0357
     17 C          63.7869   84.6628   14.4805 C.ar    1  UNL1        0.0030
     18 C          64.0465   83.3117   15.0781 C.ar    1  UNL1       -0.0001
     19 C          63.6929   82.0720   14.3113 C.ar    1  UNL1       -0.0019
     20 C          63.0797   82.1833   12.9469 C.ar    1  UNL1        0.0071
     21 C          62.8201   83.5344   12.3493 C.ar    1  UNL1        0.0012
     22 C          62.7261   80.9436   12.1801 C.3     1  UNL1        0.1636
     23 O          62.3371   79.6939   12.9130 O.3     1  UNL1       -0.3772
     24 H          63.0986   79.3629   13.4145 H       1  UNL1        0.2109
     25 C          64.7148   90.3971   14.0104 C.3     1  UNL1        0.1090
     26 C          65.4409   91.7096   14.0242 C.3     1  UNL1        0.0246
     27 C          66.9149   91.7542   13.7497 C.3     1  UNL1        0.0020
     28 C          67.4284   92.4439   12.5205 C.3     1  UNL1        0.0006
     29 C          66.5003   92.7277   11.3768 C.3     1  UNL1        0.0096
     30 C          66.3259   94.1334   10.8834 C.3     1  UNL1        0.0871
     31 O          68.6046   94.0211    9.6404 O.2     1  UNL1       -0.2730
     32 C          67.2925   94.7044    9.8886 C.2     1  UNL1        0.2443
     33 N          66.9470   95.9587    9.1419 N.am    1  UNL1       -0.1970
     34 O          67.9136   96.5297    8.1471 O.3     1  UNL1       -0.2952
     35 H          66.0859   96.4071    9.3049 H       1  UNL1        0.1822
     36 H          68.7054   95.9707    8.1081 H       1  UNL1        0.2414
@<TRIPOS>BOND
     1    31    32    2
     2    32    30    1
     3    30    29    1
     4    29    28    1
     5    28    27    1
     6    27    26    1
     7    26    25    1
     8    25     1    1
     9     1     2   ar
    10     2     3   ar
    11     3     4   ar
    12     4     5   ar
    13     5    10    1
    14    10    11    1
    15    11    12    1
    16    12    13    1
    17    13    14    1
    18    14    15    1
    19     5     6   ar
    20     6     7   ar
    21     7    16    1
    22    16    17   ar
    23    17    18   ar
    24    18    19   ar
    25    19    20   ar
    26    20    22    1
    27    22    23    1
    28    20    21   ar
    29     7     8   ar
    30     8     9   ar
    31    32    33   am
    32    33    34    1
    33     9     1   ar
    34     9     4   ar
    35    15    10    1
    36    21    16   ar
    37    23    24    1
    38    33    35    1
    39    34    36    1
@<TRIPOS>MOLECULE
*****
 36 39 0 0 0
SMALL
GASTEIGER

@<TRIPOS>ATOM
      1 N          64.3303   85.7457   14.6193 N.ar    1  UNL1       -0.2944
      2 C          64.8325   84.4332   15.1438 C.ar    1  UNL1        0.1798
      3 N          64.3296   83.3488   14.2376 N.ar    1  UNL1       -0.2194
      4 C          63.5166   83.9912   13.1529 C.ar    1  UNL1        0.1485
      5 C          62.7760   83.4186   11.9809 C.ar    1  UNL1        0.1543
      6 N          62.0358   84.3274   11.0449 N.ar    1  UNL1       -0.2102
      7 C          62.0362   85.8087   11.2808 C.ar    1  UNL1        0.1653
      8 N          62.7769   86.3813   12.4528 N.ar    1  UNL1       -0.2078
      9 C          63.5171   85.4725   13.3889 C.ar    1  UNL1        0.1672
     10 N          62.7755   81.9373   11.7450 N.pl3   1  UNL1       -0.2868
     11 C          62.4522   80.9988   12.8696 C.3     1  UNL1        0.1243
     12 C          62.4518   79.5175   12.6337 C.3     1  UNL1        0.1636
     13 O          62.7746   78.9746   11.2731 O.3     1  UNL1       -0.3501
     14 C          63.0979   79.9131   10.1485 C.3     1  UNL1        0.1636
     15 C          63.0984   81.3945   10.3844 C.3     1  UNL1        0.1243
     16 C          61.2960   86.7175   10.3447 C.ar    1  UNL1        0.0357
     17 C          60.8341   86.2066    9.0121 C.ar    1  UNL1        0.0030
     18 C          60.0939   87.1154    8.0761 C.ar    1  UNL1       -0.0001
     19 C          59.8156   88.5351    8.4725 C.ar    1  UNL1       -0.0019
     20 C          60.2776   89.0459    9.8051 C.ar    1  UNL1        0.0071
     21 C          61.0178   88.1371   10.7411 C.ar    1  UNL1        0.0012
     22 C          59.9993   90.4656   10.2015 C.3     1  UNL1        0.1636
     23 O          59.5045   90.7751   11.5834 O.3     1  UNL1       -0.3772
     24 H          58.6192   90.3968   11.7020 H       1  UNL1        0.2109
     25 C          64.5949   87.0945   15.2198 C.3     1  UNL1        0.1090
     26 C          64.3587   88.3352   14.4106 C.3     1  UNL1        0.0246
     27 C          63.9701   89.6131   15.0931 C.3     1  UNL1        0.0020
     28 C          63.8606   90.8828   14.3018 C.3     1  UNL1        0.0006
     29 C          65.0541   91.4111   13.5626 C.3     1  UNL1        0.0096
     30 C          66.3010   91.7738   14.3132 C.3     1  UNL1        0.0871
     31 O          67.5894   92.1530   12.0892 O.2     1  UNL1       -0.2730
     32 C          67.5948   91.9534   13.5758 C.2     1  UNL1        0.2443
     33 N          68.8942   91.9335   14.3251 N.am    1  UNL1       -0.1970
     34 O          70.1880   92.1131   13.5877 O.3     1  UNL1       -0.2952
     35 H          68.8978   91.8025   15.3009 H       1  UNL1        0.1822
     36 H          70.0076   92.2291   12.6417 H       1  UNL1        0.2414
@<TRIPOS>BOND
     1    31    32    2
     2    32    30    1
     3    30    29    1
     4    29    28    1
     5    28    27    1
     6    27    26    1
     7    26    25    1
     8    25     1    1
     9     1     2   ar
    10     2     3   ar
    11     3     4   ar
    12     4     5   ar
    13     5    10    1
    14    10    11    1
    15    11    12    1
    16    12    13    1
    17    13    14    1
    18    14    15    1
    19     5     6   ar
    20     6     7   ar
    21     7    16    1
    22    16    17   ar
    23    17    18   ar
    24    18    19   ar
    25    19    20   ar
    26    20    22    1
    27    22    23    1
    28    20    21   ar
    29     7     8   ar
    30     8     9   ar
    31    32    33   am
    32    33    34    1
    33     9     1   ar
    34     9     4   ar
    35    15    10    1
    36    21    16   ar
    37    23    24    1
    38    33    35    1
    39    34    36    1
@<TRIPOS>MOLECULE
*****
 36 39 0 0 0
SMALL
GASTEIGER

@<TRIPOS>ATOM
      1 N          63.4842   89.2606   13.0922 N.ar    1  UNL1       -0.2944
      2 C          62.8706   90.4111   12.3507 C.ar    1  UNL1        0.1798
      3 N          62.0445   89.8526   11.2301 N.ar    1  UNL1       -0.2194
      4 C          62.1477   88.3570   11.2790 C.ar    1  UNL1        0.1485
      5 C          61.5463   87.2809   10.4243 C.ar    1  UNL1        0.1543
      6 N          61.8348   85.8390   10.7205 N.ar    1  UNL1       -0.2102
      7 C          62.7245   85.4732   11.8712 C.ar    1  UNL1        0.1653
      8 N          63.3259   86.5492   12.7260 N.ar    1  UNL1       -0.2078
      9 C          63.0375   87.9911   12.4298 C.ar    1  UNL1        0.1672
     10 N          60.6565   87.6468    9.2735 N.pl3   1  UNL1       -0.2868
     11 C          60.5331   89.0796    8.8467 C.3     1  UNL1        0.1243
     12 C          59.6434   89.4454    7.6960 C.3     1  UNL1        0.1636
     13 O          58.8769   88.3785    6.9718 O.3     1  UNL1       -0.3501
     14 C          59.0003   86.9458    7.3985 C.3     1  UNL1        0.1636
     15 C          59.8901   86.5799    8.5494 C.3     1  UNL1        0.1243
     16 C          63.0130   84.0312   12.1674 C.ar    1  UNL1        0.0357
     17 C          64.1139   83.3212   11.4368 C.ar    1  UNL1        0.0030
     18 C          64.4024   81.8793   11.7329 C.ar    1  UNL1       -0.0001
     19 C          63.5899   81.1474   12.7597 C.ar    1  UNL1       -0.0019
     20 C          62.4890   81.8574   13.4903 C.ar    1  UNL1        0.0071
     21 C          62.2005   83.2993   13.1942 C.ar    1  UNL1        0.0012
     22 C          61.6765   81.1256   14.5171 C.3     1  UNL1        0.1636
     23 O          60.2493   80.7660   14.2270 O.3     1  UNL1       -0.3772
     24 H          59.7212   81.5759   14.1492 H       1  UNL1        0.2109
     25 C          64.3863   89.3619   14.2863 C.3     1  UNL1        0.1090
     26 C          63.8331   89.8028   15.6090 C.3     1  UNL1        0.0246
     27 C          64.1156   91.1857   16.1168 C.3     1  UNL1        0.0020
     28 C          65.2286   91.9923   15.5161 C.3     1  UNL1        0.0006
     29 C          66.1827   92.7330   16.4056 C.3     1  UNL1        0.0096
     30 C          67.5327   93.1334   15.8889 C.3     1  UNL1        0.0871
     31 O          67.1191   93.5701   13.3615 O.2     1  UNL1       -0.2730
     32 C          67.8893   92.8877   14.4528 C.2     1  UNL1        0.2443
     33 N          69.0161   91.9594   14.1080 N.am    1  UNL1       -0.1970
     34 O          69.3726   91.7137   12.6719 O.3     1  UNL1       -0.2952
     35 H          69.5216   91.5115   14.8243 H       1  UNL1        0.1822
     36 H          68.7817   92.2277   12.0995 H       1  UNL1        0.2414
@<TRIPOS>BOND
     1    31    32    2
     2    32    30    1
     3    30    29    1
     4    29    28    1
     5    28    27    1
     6    27    26    1
     7    26    25    1
     8    25     1    1
     9     1     2   ar
    10     2     3   ar
    11     3     4   ar
    12     4     5   ar
    13     5    10    1
    14    10    11    1
    15    11    12    1
    16    12    13    1
    17    13    14    1
    18    14    15    1
    19     5     6   ar
    20     6     7   ar
    21     7    16    1
    22    16    17   ar
    23    17    18   ar
    24    18    19   ar
    25    19    20   ar
    26    20    22    1
    27    22    23    1
    28    20    21   ar
    29     7     8   ar
    30     8     9   ar
    31    32    33   am
    32    33    34    1
    33     9     1   ar
    34     9     4   ar
    35    15    10    1
    36    21    16   ar
    37    23    24    1
    38    33    35    1
    39    34    36    1
@<TRIPOS>MOLECULE
*****
 36 39 0 0 0
SMALL
GASTEIGER

@<TRIPOS>ATOM
      1 N          64.2449   85.1330   13.6848 N.ar    1  UNL1       -0.2944
      2 C          65.0600   85.4791   14.8954 C.ar    1  UNL1        0.1798
      3 N          65.0086   86.9670   15.0791 N.ar    1  UNL1       -0.2194
      4 C          64.1617   87.5404   13.9819 C.ar    1  UNL1        0.1485
      5 C          63.7593   88.9482   13.6561 C.ar    1  UNL1        0.1543
      6 N          62.8849   89.2226   12.4686 N.ar    1  UNL1       -0.2102
      7 C          62.4129   88.0892   11.6069 C.ar    1  UNL1        0.1653
      8 N          62.8153   86.6813   11.9327 N.ar    1  UNL1       -0.2078
      9 C          63.6897   86.4070   13.1202 C.ar    1  UNL1        0.1672
     10 N          64.2313   90.0817   14.5178 N.pl3   1  UNL1       -0.2868
     11 C          65.4026   90.9140   14.0870 C.3     1  UNL1        0.1243
     12 C          65.8746   92.0474   14.9487 C.3     1  UNL1        0.1636
     13 O          65.1754   92.3486   16.2411 O.3     1  UNL1       -0.3501
     14 C          64.0041   91.5164   16.6718 C.3     1  UNL1        0.1636
     15 C          63.5321   90.3829   15.8102 C.3     1  UNL1        0.1243
     16 C          61.5385   88.3636   10.4193 C.ar    1  UNL1        0.0357
     17 C          61.2308   89.7778   10.0253 C.ar    1  UNL1        0.0030
     18 C          60.3564   90.0522    8.8378 C.ar    1  UNL1       -0.0001
     19 C          59.7897   88.9123    8.0444 C.ar    1  UNL1       -0.0019
     20 C          60.0974   87.4981    8.4384 C.ar    1  UNL1        0.0071
     21 C          60.9718   87.2238    9.6259 C.ar    1  UNL1        0.0012
     22 C          59.5307   86.3582    7.6449 C.3     1  UNL1        0.1636
     23 O          58.0447   86.2038    7.5104 O.3     1  UNL1       -0.3772
     24 H          57.6605   86.0043    8.3784 H       1  UNL1        0.2109
     25 C          64.0238   83.7550   13.1352 C.3     1  UNL1        0.1090
     26 C          64.6787   83.3464   11.8491 C.3     1  UNL1        0.0246
     27 C          63.9852   82.3897   10.9252 C.3     1  UNL1        0.0020
     28 C          62.7539   81.6650   11.3821 C.3     1  UNL1        0.0006
     29 C          62.8502   80.2424   11.8478 C.3     1  UNL1        0.0096
     30 C          62.4383   79.8808   13.2441 C.3     1  UNL1        0.0871
     31 O          60.3846   81.0369   14.3374 O.2     1  UNL1       -0.2730
     32 C          61.8693   80.9293   14.1535 C.2     1  UNL1        0.2443
     33 N          62.7851   81.8700   14.8790 N.am    1  UNL1       -0.1970
     34 O          62.2161   82.9185   15.7884 O.3     1  UNL1       -0.2952
     35 H          63.7597   81.7993   14.7582 H       1  UNL1        0.1822
     36 H          61.2485   82.8512   15.7938 H       1  UNL1        0.2414
@<TRIPOS>BOND
     1    31    32    2
     2    32    30    1
     3    30    29    1
     4    29    28    1
     5    28    27    1
     6    27    26    1
     7    26    25    1
     8    25     1    1
     9     1     2   ar
    10     2     3   ar
    11     3     4   ar
    12     4     5   ar
    13     5    10    1
    14    10    11    1
    15    11    12    1
    16    12    13    1
    17    13    14    1
    18    14    15    1
    19     5     6   ar
    20     6     7   ar
    21     7    16    1
    22    16    17   ar
    23    17    18   ar
    24    18    19   ar
    25    19    20   ar
    26    20    22    1
    27    22    23    1
    28    20    21   ar
    29     7     8   ar
    30     8     9   ar
    31    32    33   am
    32    33    34    1
    33     9     1   ar
    34     9     4   ar
    35    15    10    1
    36    21    16   ar
    37    23    24    1
    38    33    35    1
    39    34    36    1
@<TRIPOS>MOLECULE
*****
 36 39 0 0 0
SMALL
GASTEIGER

@<TRIPOS>ATOM
      1 N          61.7246   89.1770   10.2386 N.ar    1  UNL1       -0.2944
      2 C          61.9257   90.6567   10.0966 C.ar    1  UNL1        0.1798
      3 N          62.8278   91.1106   11.2057 N.ar    1  UNL1       -0.2194
      4 C          63.1844   89.9114   12.0332 C.ar    1  UNL1        0.1485
      5 C          64.0418   89.7531   13.2538 C.ar    1  UNL1        0.1543
      6 N          64.2174   88.3999   13.8766 N.ar    1  UNL1       -0.2102
      7 C          63.5357   87.2050   13.2790 C.ar    1  UNL1        0.1653
      8 N          62.6782   87.3632   12.0584 N.ar    1  UNL1       -0.2078
      9 C          62.5026   88.7164   11.4355 C.ar    1  UNL1        0.1672
     10 N          64.7236   90.9481   13.8515 N.pl3   1  UNL1       -0.2868
     11 C          65.4449   91.9208   12.9662 C.3     1  UNL1        0.1243
     12 C          66.1267   93.1157   13.5638 C.3     1  UNL1        0.1636
     13 O          66.0872   93.3380   15.0468 O.3     1  UNL1       -0.3501
     14 C          65.3660   92.3653   15.9320 C.3     1  UNL1        0.1636
     15 C          64.6841   91.1703   15.3344 C.3     1  UNL1        0.1243
     16 C          63.7113   85.8517   13.9019 C.ar    1  UNL1        0.0357
     17 C          64.9193   85.5645   14.7434 C.ar    1  UNL1        0.0030
     18 C          65.0949   84.2113   15.3663 C.ar    1  UNL1       -0.0001
     19 C          64.0625   83.1453   15.1476 C.ar    1  UNL1       -0.0019
     20 C          62.8545   83.4325   14.3061 C.ar    1  UNL1        0.0071
     21 C          62.6789   84.7857   13.6833 C.ar    1  UNL1        0.0012
     22 C          61.8221   82.3665   14.0875 C.3     1  UNL1        0.1636
     23 O          62.0166   81.0016   14.6785 O.3     1  UNL1       -0.3772
     24 H          62.7815   80.5748   14.2617 H       1  UNL1        0.2109
     25 C          60.8919   88.3102    9.3413 C.3     1  UNL1        0.1090
     26 C          60.6664   86.8687    9.6893 C.3     1  UNL1        0.0246
     27 C          61.2167   85.7888    8.8055 C.3     1  UNL1        0.0020
     28 C          62.6673   85.4167    8.8905 C.3     1  UNL1        0.0006
     29 C          63.1700   84.6199   10.0577 C.3     1  UNL1        0.0096
     30 C          63.9678   83.3711    9.8255 C.3     1  UNL1        0.0871
     31 O          65.0185   82.2540   11.9227 O.2     1  UNL1       -0.2730
     32 C          63.9670   82.2785   10.8532 C.2     1  UNL1        0.2443
     33 N          62.9146   81.2104   10.8115 N.am    1  UNL1       -0.1970
     34 O          62.9137   80.1178   11.8393 O.3     1  UNL1       -0.2952
     35 H          62.2244   81.2265   10.1096 H       1  UNL1        0.1822
     36 H          63.6541   80.2497   12.4519 H       1  UNL1        0.2414
@<TRIPOS>BOND
     1    31    32    2
     2    32    30    1
     3    30    29    1
     4    29    28    1
     5    28    27    1
     6    27    26    1
     7    26    25    1
     8    25     1    1
     9     1     2   ar
    10     2     3   ar
    11     3     4   ar
    12     4     5   ar
    13     5    10    1
    14    10    11    1
    15    11    12    1
    16    12    13    1
    17    13    14    1
    18    14    15    1
    19     5     6   ar
    20     6     7   ar
    21     7    16    1
    22    16    17   ar
    23    17    18   ar
    24    18    19   ar
    25    19    20   ar
    26    20    22    1
    27    22    23    1
    28    20    21   ar
    29     7     8   ar
    30     8     9   ar
    31    32    33   am
    32    33    34    1
    33     9     1   ar
    34     9     4   ar
    35    15    10    1
    36    21    16   ar
    37    23    24    1
    38    33    35    1
    39    34    36    1
@<TRIPOS>MOLECULE
*****
 36 39 0 0 0
SMALL
GASTEIGER

@<TRIPOS>ATOM
      1 N          63.3391   90.3201   12.0318 N.ar    1  UNL1       -0.2944
      2 C          62.6616   90.9578   10.8552 C.ar    1  UNL1        0.1798
      3 N          61.9757   89.8769   10.0734 N.ar    1  UNL1       -0.2194
      4 C          62.2293   88.5712   10.7667 C.ar    1  UNL1        0.1485
      5 C          61.8019   87.1682   10.4523 C.ar    1  UNL1        0.1543
      6 N          62.2171   86.0391   11.3483 N.ar    1  UNL1       -0.2102
      7 C          63.0596   86.3130   12.5586 C.ar    1  UNL1        0.1653
      8 N          63.4871   87.7161   12.8731 N.ar    1  UNL1       -0.2078
      9 C          63.0719   88.8451   11.9771 C.ar    1  UNL1        0.1672
     10 N          60.9593   86.8943    9.2420 N.pl3   1  UNL1       -0.2868
     11 C          59.6618   87.6225    9.0509 C.3     1  UNL1        0.1243
     12 C          58.8192   87.3486    7.8406 C.3     1  UNL1        0.1636
     13 O          59.2740   86.3465    6.8212 O.3     1  UNL1       -0.3501
     14 C          60.5713   85.6183    7.0123 C.3     1  UNL1        0.1636
     15 C          61.4140   85.8922    8.2227 C.3     1  UNL1        0.1243
     16 C          63.4748   85.1838   13.4546 C.ar    1  UNL1        0.0357
     17 C          64.0200   85.4729   14.8218 C.ar    1  UNL1        0.0030
     18 C          64.4351   84.3438   15.7178 C.ar    1  UNL1       -0.0001
     19 C          64.3051   82.9256   15.2465 C.ar    1  UNL1       -0.0019
     20 C          63.7599   82.6366   13.8793 C.ar    1  UNL1        0.0071
     21 C          63.3448   83.7657   12.9834 C.ar    1  UNL1        0.0012
     22 C          63.6299   81.2185   13.4081 C.3     1  UNL1        0.1636
     23 O          63.3717   80.1204   14.3968 O.3     1  UNL1       -0.3772
     24 H          64.1383   80.0268   14.9837 H       1  UNL1        0.2109
     25 C          64.1426   91.0324   13.0792 C.3     1  UNL1        0.1090
     26 C          64.5834   90.3011   14.3124 C.3     1  UNL1        0.0246
     27 C          64.2679   90.8595   15.6685 C.3     1  UNL1        0.0020
     28 C          64.8480   92.1769   16.0906 C.3     1  UNL1        0.0006
     29 C          66.0607   92.7199   15.3946 C.3     1  UNL1        0.0096
     30 C          67.3163   92.9835   16.1716 C.3     1  UNL1        0.0871
     31 O          69.7178   93.9456   15.9320 O.2     1  UNL1       -0.2730
     32 C          68.6416   93.0087   15.4694 C.2     1  UNL1        0.2443
     33 N          68.8906   92.0969   14.3046 N.am    1  UNL1       -0.1970
     34 O          70.2159   92.1221   13.6024 O.3     1  UNL1       -0.2952
     35 H          68.1843   91.4820   14.0010 H       1  UNL1        0.1822
     36 H          70.7927   92.7783   14.0238 H       1  UNL1        0.2414
@<TRIPOS>BOND
     1    31    32    2
     2    32    30    1
     3    30    29    1
     4    29    28    1
     5    28    27    1
     6    27    26    1
     7    26    25    1
     8    25     1    1
     9     1     2   ar
    10     2     3   ar
    11     3     4   ar
    12     4     5   ar
    13     5    10    1
    14    10    11    1
    15    11    12    1
    16    12    13    1
    17    13    14    1
    18    14    15    1
    19     5     6   ar
    20     6     7   ar
    21     7    16    1
    22    16    17   ar
    23    17    18   ar
    24    18    19   ar
    25    19    20   ar
    26    20    22    1
    27    22    23    1
    28    20    21   ar
    29     7     8   ar
    30     8     9   ar
    31    32    33   am
    32    33    34    1
    33     9     1   ar
    34     9     4   ar
    35    15    10    1
    36    21    16   ar
    37    23    24    1
    38    33    35    1
    39    34    36    1
