@<TRIPOS>MOLECULE
*****
 26 28 0 0 0
SMALL
GASTEIGER

@<TRIPOS>ATOM
      1 C          65.8078   92.4684   12.9486 C.ar    1  UNL1        0.1724
      2 C          64.8176   91.4565   13.4440 C.ar    1  UNL1        0.0400
      3 C          63.8383   90.8368   12.4916 C.ar    1  UNL1        0.0032
      4 C          62.8481   89.8249   12.9870 C.ar    1  UNL1       -0.0001
      5 C          61.8689   89.2052   12.0346 C.ar    1  UNL1       -0.0017
      6 C          61.8799   89.5974   10.5868 C.ar    1  UNL1        0.0056
      7 C          62.8702   90.6092   10.0914 C.ar    1  UNL1       -0.0016
      8 C          63.8494   91.2289   11.0438 C.ar    1  UNL1        0.0030
      9 C          64.8397   92.2409   10.5484 C.ar    1  UNL1        0.0400
     10 C          65.8189   92.8606   11.5008 C.ar    1  UNL1        0.1724
     11 C          60.9006   88.9776    9.6344 C.3     1  UNL1        0.1256
     12 O          60.2715   90.3202    9.4075 O.3     1  UNL1       -0.3786
     13 H          60.7330   90.9875    9.9392 H       1  UNL1        0.2111
     14 C          61.5297   87.6350    9.8613 C.ar    1  UNL1        0.0086
     15 C          62.3653   87.0067    8.7856 C.ar    1  UNL1        0.0190
     16 C          62.9944   85.6641    9.0125 C.ar    1  UNL1        0.0986
     17 N          62.7879   84.9496   10.3152 N.ar    1  UNL1       -0.2423
     18 C          61.9524   85.5778   11.3909 C.ar    1  UNL1        0.0986
     19 C          61.3232   86.9205   11.1640 C.ar    1  UNL1        0.0190
     20 C          59.9214   88.3578    8.6821 C.3     1  UNL1        0.0325
     21 C          59.6432   89.0119    7.3611 C.3     1  UNL1        0.0031
     22 C          59.2203   87.0839    9.0506 C.3     1  UNL1        0.0031
     23 C          66.7651   92.7085   15.3519 C.3     1  UNL1        0.2526
     24 O          66.7871   93.0882   13.9010 O.3     1  UNL1       -0.4684
     25 O          66.8092   93.8725   11.0054 O.3     1  UNL1       -0.4684
     26 C          66.4010   95.3075   10.8496 C.3     1  UNL1        0.2526
@<TRIPOS>BOND
     1    23    24    1
     2    24     1    1
     3     1     2   ar
     4     2     3   ar
     5     3     4   ar
     6     4     5   ar
     7     5     6   ar
     8     6    11    1
     9    11    12    1
    10    11    14    1
    11    14    15   ar
    12    15    16   ar
    13    16    17   ar
    14    17    18   ar
    15    18    19   ar
    16    11    20    1
    17    20    21    1
    18    20    22    1
    19     6     7   ar
    20     7     8   ar
    21     8     9   ar
    22     9    10   ar
    23    10    25    1
    24    25    26    1
    25    10     1   ar
    26     8     3   ar
    27    19    14   ar
    28    12    13    1
@<TRIPOS>MOLECULE
*****
 26 28 0 0 0
SMALL
GASTEIGER

@<TRIPOS>ATOM
      1 C          61.2252   88.1259    9.9493 C.ar    1  UNL1        0.1724
      2 C          61.7246   89.4978    9.6054 C.ar    1  UNL1        0.0400
      3 C          62.7158   90.1813   10.5001 C.ar    1  UNL1        0.0032
      4 C          63.2152   91.5532   10.1562 C.ar    1  UNL1       -0.0001
      5 C          64.2063   92.2367   11.0510 C.ar    1  UNL1       -0.0017
      6 C          64.6980   91.5482   12.2896 C.ar    1  UNL1        0.0056
      7 C          64.1985   90.1762   12.6335 C.ar    1  UNL1       -0.0016
      8 C          63.2075   89.4928   11.7388 C.ar    1  UNL1        0.0030
      9 C          62.7080   88.1208   12.0826 C.ar    1  UNL1        0.0400
     10 C          61.7169   87.4373   11.1879 C.ar    1  UNL1        0.1724
     11 C          65.6891   92.2317   13.1844 C.3     1  UNL1        0.1256
     12 O          64.9188   91.7741   14.3873 O.3     1  UNL1       -0.3786
     13 H          64.1484   91.2588   14.1012 H       1  UNL1        0.2111
     14 C          66.4595   92.6892   11.9814 C.ar    1  UNL1        0.0086
     15 C          66.1687   94.0274   11.3690 C.ar    1  UNL1        0.0190
     16 C          66.9391   94.4849   10.1661 C.ar    1  UNL1        0.0986
     17 N          68.0002   93.6044    9.5755 N.ar    1  UNL1       -0.2423
     18 C          68.2909   92.2664   10.1878 C.ar    1  UNL1        0.0986
     19 C          67.5206   91.8087   11.3908 C.ar    1  UNL1        0.0190
     20 C          66.6802   92.9152   14.0791 C.3     1  UNL1        0.0325
     21 C          66.7694   94.4124   14.0939 C.3     1  UNL1        0.0031
     22 C          67.5822   92.1014   14.9590 C.3     1  UNL1        0.0031
     23 C          60.6713   86.3014    8.1844 C.3     1  UNL1        0.2526
     24 O          60.2341   87.4423    9.0545 O.3     1  UNL1       -0.4684
     25 O          61.2174   86.0653   11.5318 O.3     1  UNL1       -0.4684
     26 C          62.1837   84.9248   11.6563 C.3     1  UNL1        0.2526
@<TRIPOS>BOND
     1    23    24    1
     2    24     1    1
     3     1     2   ar
     4     2     3   ar
     5     3     4   ar
     6     4     5   ar
     7     5     6   ar
     8     6    11    1
     9    11    12    1
    10    11    14    1
    11    14    15   ar
    12    15    16   ar
    13    16    17   ar
    14    17    18   ar
    15    18    19   ar
    16    11    20    1
    17    20    21    1
    18    20    22    1
    19     6     7   ar
    20     7     8   ar
    21     8     9   ar
    22     9    10   ar
    23    10    25    1
    24    25    26    1
    25    10     1   ar
    26     8     3   ar
    27    19    14   ar
    28    12    13    1
@<TRIPOS>MOLECULE
*****
 26 28 0 0 0
SMALL
GASTEIGER

@<TRIPOS>ATOM
      1 C          64.5699   91.3765   14.4636 C.ar    1  UNL1        0.1724
      2 C          64.6260   91.6171   12.9841 C.ar    1  UNL1        0.0400
      3 C          63.6632   90.9149   12.0731 C.ar    1  UNL1        0.0032
      4 C          63.7193   91.1555   10.5936 C.ar    1  UNL1       -0.0001
      5 C          62.7565   90.4533    9.6826 C.ar    1  UNL1       -0.0017
      6 C          61.7377   89.5106   10.2510 C.ar    1  UNL1        0.0056
      7 C          61.6816   89.2700   11.7305 C.ar    1  UNL1       -0.0016
      8 C          62.6444   89.9722   12.6415 C.ar    1  UNL1        0.0030
      9 C          62.5883   89.7316   14.1211 C.ar    1  UNL1        0.0400
     10 C          63.5511   90.4338   15.0321 C.ar    1  UNL1        0.1724
     11 C          60.7749   88.8084    9.3399 C.3     1  UNL1        0.1256
     12 O          60.1231   90.1203    9.0175 O.3     1  UNL1       -0.3786
     13 H          60.5696   90.8312    9.5035 H       1  UNL1        0.2111
     14 C          61.4267   87.4964    9.6624 C.ar    1  UNL1        0.0086
     15 C          62.2759   86.8083    8.6351 C.ar    1  UNL1        0.0190
     16 C          62.9277   85.4964    8.9575 C.ar    1  UNL1        0.0986
     17 N          62.7302   84.8725   10.3073 N.ar    1  UNL1       -0.2423
     18 C          61.8810   85.5606   11.3345 C.ar    1  UNL1        0.0986
     19 C          61.2292   86.8726   11.0121 C.ar    1  UNL1        0.0190
     20 C          59.8122   88.1062    8.4289 C.3     1  UNL1        0.0325
     21 C          59.2660   86.7615    8.8077 C.3     1  UNL1        0.0031
     22 C          59.3955   88.7487    7.1390 C.3     1  UNL1        0.0031
     23 C          66.4998   93.0799   14.8159 C.3     1  UNL1        0.2526
     24 O          65.5327   92.0787   15.3747 O.3     1  UNL1       -0.4684
     25 O          63.4950   90.1932   16.5117 O.3     1  UNL1       -0.4684
     26 C          63.1089   88.8427   17.0378 C.3     1  UNL1        0.2526
@<TRIPOS>BOND
     1    23    24    1
     2    24     1    1
     3     1     2   ar
     4     2     3   ar
     5     3     4   ar
     6     4     5   ar
     7     5     6   ar
     8     6    11    1
     9    11    12    1
    10    11    14    1
    11    14    15   ar
    12    15    16   ar
    13    16    17   ar
    14    17    18   ar
    15    18    19   ar
    16    11    20    1
    17    20    21    1
    18    20    22    1
    19     6     7   ar
    20     7     8   ar
    21     8     9   ar
    22     9    10   ar
    23    10    25    1
    24    25    26    1
    25    10     1   ar
    26     8     3   ar
    27    19    14   ar
    28    12    13    1
@<TRIPOS>MOLECULE
*****
 26 28 0 0 0
SMALL
GASTEIGER

@<TRIPOS>ATOM
      1 C          60.9118   88.1662    9.1176 C.ar    1  UNL1        0.1724
      2 C          61.8371   87.0793    8.6569 C.ar    1  UNL1        0.0400
      3 C          62.1800   85.9458    9.5777 C.ar    1  UNL1        0.0032
      4 C          63.1054   84.8589    9.1170 C.ar    1  UNL1       -0.0001
      5 C          63.4482   83.7256   10.0377 C.ar    1  UNL1       -0.0017
      6 C          62.8657   83.6791   11.4192 C.ar    1  UNL1        0.0056
      7 C          61.9404   84.7660   11.8800 C.ar    1  UNL1       -0.0016
      8 C          61.5975   85.8994   10.9592 C.ar    1  UNL1        0.0030
      9 C          60.6721   86.9864   11.4199 C.ar    1  UNL1        0.0400
     10 C          60.3293   88.1198   10.4991 C.ar    1  UNL1        0.1724
     11 C          63.2086   82.5457   12.3401 C.3     1  UNL1        0.1256
     12 O          63.1060   81.5835   11.1939 O.3     1  UNL1       -0.3786
     13 H          62.8749   82.0671   10.3855 H       1  UNL1        0.2111
     14 C          63.3112   83.5079   13.4862 C.ar    1  UNL1        0.0086
     15 C          64.4437   84.4900   13.5419 C.ar    1  UNL1        0.0190
     16 C          64.5462   85.4522   14.6880 C.ar    1  UNL1        0.0986
     17 N          63.5164   85.4323   15.7784 N.ar    1  UNL1       -0.2423
     18 C          62.3840   84.4503   15.7227 C.ar    1  UNL1        0.0986
     19 C          62.2814   83.4880   14.5766 C.ar    1  UNL1        0.0190
     20 C          63.5515   81.4123   13.2608 C.3     1  UNL1        0.0325
     21 C          62.5311   80.3545   13.5606 C.3     1  UNL1        0.0031
     22 C          64.9148   81.3367   13.8819 C.3     1  UNL1        0.0031
     23 C          59.4709   89.1401    7.1874 C.3     1  UNL1        0.2526
     24 O          60.5689   89.2997    8.1968 O.3     1  UNL1       -0.4684
     25 O          59.4039   89.2068   10.9598 O.3     1  UNL1       -0.4684
     26 C          59.9636   90.4937   11.4895 C.3     1  UNL1        0.2526
@<TRIPOS>BOND
     1    23    24    1
     2    24     1    1
     3     1     2   ar
     4     2     3   ar
     5     3     4   ar
     6     4     5   ar
     7     5     6   ar
     8     6    11    1
     9    11    12    1
    10    11    14    1
    11    14    15   ar
    12    15    16   ar
    13    16    17   ar
    14    17    18   ar
    15    18    19   ar
    16    11    20    1
    17    20    21    1
    18    20    22    1
    19     6     7   ar
    20     7     8   ar
    21     8     9   ar
    22     9    10   ar
    23    10    25    1
    24    25    26    1
    25    10     1   ar
    26     8     3   ar
    27    19    14   ar
    28    12    13    1
@<TRIPOS>MOLECULE
*****
 26 28 0 0 0
SMALL
GASTEIGER

@<TRIPOS>ATOM
      1 C          66.1344   93.0642   13.0680 C.ar    1  UNL1        0.1724
      2 C          65.4567   91.8414   13.6116 C.ar    1  UNL1        0.0400
      3 C          64.5394   91.0404   12.7359 C.ar    1  UNL1        0.0032
      4 C          63.8617   89.8176   13.2796 C.ar    1  UNL1       -0.0001
      5 C          62.9445   89.0166   12.4038 C.ar    1  UNL1       -0.0017
      6 C          62.7049   89.4383   10.9844 C.ar    1  UNL1        0.0056
      7 C          63.3826   90.6610   10.4407 C.ar    1  UNL1       -0.0016
      8 C          64.2998   91.4621   11.3165 C.ar    1  UNL1        0.0030
      9 C          64.9776   92.6849   10.7728 C.ar    1  UNL1        0.0400
     10 C          65.8949   93.4859   11.6485 C.ar    1  UNL1        0.1724
     11 C          61.7876   88.6372   10.1086 C.3     1  UNL1        0.1256
     12 O          62.9696   88.1193    9.3442 O.3     1  UNL1       -0.3786
     13 H          63.7837   88.4960    9.7133 H       1  UNL1        0.2111
     14 C          60.6055   89.1552   10.8731 C.ar    1  UNL1        0.0086
     15 C          59.8346   88.2371   11.7747 C.ar    1  UNL1        0.0190
     16 C          58.6525   88.7550   12.5391 C.ar    1  UNL1        0.0986
     17 N          58.2414   90.1910   12.4021 N.ar    1  UNL1       -0.2423
     18 C          59.0122   91.1091   11.5005 C.ar    1  UNL1        0.0986
     19 C          60.1944   90.5912   10.7360 C.ar    1  UNL1        0.0190
     20 C          60.8703   87.8362    9.2330 C.3     1  UNL1        0.0325
     21 C          60.8588   86.3393    9.3295 C.3     1  UNL1        0.0031
     22 C          59.9644   88.5320    8.2607 C.3     1  UNL1        0.0031
     23 C          67.4865   93.3200   15.2717 C.3     1  UNL1        0.2526
     24 O          67.0517   93.8653   13.9437 O.3     1  UNL1       -0.4684
     25 O          66.5726   94.7087   11.1048 O.3     1  UNL1       -0.4684
     26 C          67.2683   94.6527    9.7771 C.3     1  UNL1        0.2526
@<TRIPOS>BOND
     1    23    24    1
     2    24     1    1
     3     1     2   ar
     4     2     3   ar
     5     3     4   ar
     6     4     5   ar
     7     5     6   ar
     8     6    11    1
     9    11    12    1
    10    11    14    1
    11    14    15   ar
    12    15    16   ar
    13    16    17   ar
    14    17    18   ar
    15    18    19   ar
    16    11    20    1
    17    20    21    1
    18    20    22    1
    19     6     7   ar
    20     7     8   ar
    21     8     9   ar
    22     9    10   ar
    23    10    25    1
    24    25    26    1
    25    10     1   ar
    26     8     3   ar
    27    19    14   ar
    28    12    13    1
@<TRIPOS>MOLECULE
*****
 26 28 0 0 0
SMALL
GASTEIGER

@<TRIPOS>ATOM
      1 C          61.7548   87.9809   11.2498 C.ar    1  UNL1        0.1724
      2 C          62.5971   88.5796   12.3370 C.ar    1  UNL1        0.0400
      3 C          63.3610   89.8454   12.0829 C.ar    1  UNL1        0.0032
      4 C          64.2032   90.4441   13.1702 C.ar    1  UNL1       -0.0001
      5 C          64.9670   91.7098   12.9161 C.ar    1  UNL1       -0.0017
      6 C          64.8887   92.3767   11.5747 C.ar    1  UNL1        0.0056
      7 C          64.0465   91.7779   10.4875 C.ar    1  UNL1       -0.0016
      8 C          63.2826   90.5122   10.7416 C.ar    1  UNL1        0.0030
      9 C          62.4403   89.9134    9.6544 C.ar    1  UNL1        0.0400
     10 C          61.6765   88.6477    9.9084 C.ar    1  UNL1        0.1724
     11 C          65.6526   93.6424   11.3207 C.3     1  UNL1        0.1256
     12 O          64.6614   94.0284   10.2631 O.3     1  UNL1       -0.3786
     13 H          63.9820   93.3400   10.1901 H       1  UNL1        0.2111
     14 C          66.6438   93.2563   12.3782 C.ar    1  UNL1        0.0086
     15 C          67.7068   92.2421   12.0755 C.ar    1  UNL1        0.0190
     16 C          68.6980   91.8561   13.1330 C.ar    1  UNL1        0.0986
     17 N          68.6263   92.4842   14.4933 N.ar    1  UNL1       -0.2423
     18 C          67.5634   93.4984   14.7960 C.ar    1  UNL1        0.0986
     19 C          66.5721   93.8845   13.7385 C.ar    1  UNL1        0.0190
     20 C          66.4165   94.9080   11.0667 C.3     1  UNL1        0.0325
     21 C          66.1413   96.1289   11.8934 C.3     1  UNL1        0.0031
     22 C          67.4557   94.9528    9.9858 C.3     1  UNL1        0.0031
     23 C          61.6338   85.3856   11.2412 C.3     1  UNL1        0.2526
     24 O          60.9909   86.7151   11.5038 O.3     1  UNL1       -0.4684
     25 O          60.8342   88.0489    8.8212 O.3     1  UNL1       -0.4684
     26 C          59.8214   88.8932    8.1061 C.3     1  UNL1        0.2526
@<TRIPOS>BOND
     1    23    24    1
     2    24     1    1
     3     1     2   ar
     4     2     3   ar
     5     3     4   ar
     6     4     5   ar
     7     5     6   ar
     8     6    11    1
     9    11    12    1
    10    11    14    1
    11    14    15   ar
    12    15    16   ar
    13    16    17   ar
    14    17    18   ar
    15    18    19   ar
    16    11    20    1
    17    20    21    1
    18    20    22    1
    19     6     7   ar
    20     7     8   ar
    21     8     9   ar
    22     9    10   ar
    23    10    25    1
    24    25    26    1
    25    10     1   ar
    26     8     3   ar
    27    19    14   ar
    28    12    13    1
@<TRIPOS>MOLECULE
*****
 26 28 0 0 0
SMALL
GASTEIGER

@<TRIPOS>ATOM
      1 C          63.1927   81.7319   11.2127 C.ar    1  UNL1        0.1724
      2 C          63.3306   82.6494   10.0342 C.ar    1  UNL1        0.0400
      3 C          62.9732   84.1002   10.1672 C.ar    1  UNL1        0.0032
      4 C          63.1111   85.0177    8.9887 C.ar    1  UNL1       -0.0001
      5 C          62.7536   86.4684    9.1218 C.ar    1  UNL1       -0.0017
      6 C          62.2583   87.0015   10.4334 C.ar    1  UNL1        0.0056
      7 C          62.1203   86.0839   11.6120 C.ar    1  UNL1       -0.0016
      8 C          62.4778   84.6333   11.4789 C.ar    1  UNL1        0.0030
      9 C          62.3399   83.7156   12.6575 C.ar    1  UNL1        0.0400
     10 C          62.6973   82.2650   12.5244 C.ar    1  UNL1        0.1724
     11 C          61.9008   88.4523   10.5665 C.3     1  UNL1        0.1256
     12 O          62.9524   88.6144   11.6237 O.3     1  UNL1       -0.3786
     13 H          63.3970   87.7649   11.7705 H       1  UNL1        0.2111
     14 C          60.8492   88.2901    9.5092 C.ar    1  UNL1        0.0086
     15 C          60.6690   89.3488    8.4619 C.ar    1  UNL1        0.0190
     16 C          59.6174   89.1866    7.4047 C.ar    1  UNL1        0.0986
     17 N          58.7460   87.9657    7.3946 N.ar    1  UNL1       -0.2423
     18 C          58.9262   86.9070    8.4418 C.ar    1  UNL1        0.0986
     19 C          59.9778   87.0692    9.4992 C.ar    1  UNL1        0.0190
     20 C          61.5433   89.9029   10.6995 C.3     1  UNL1        0.0325
     21 C          60.1920   90.2980   11.2170 C.3     1  UNL1        0.0031
     22 C          62.5372   90.9586   10.3150 C.3     1  UNL1        0.0031
     23 C          62.9231   79.4502    9.9998 C.3     1  UNL1        0.2526
     24 O          63.5502   80.2811   11.0797 O.3     1  UNL1       -0.4684
     25 O          62.5594   81.3473   13.7029 O.3     1  UNL1       -0.4684
     26 C          61.2029   80.8630   14.1216 C.3     1  UNL1        0.2526
@<TRIPOS>BOND
     1    23    24    1
     2    24     1    1
     3     1     2   ar
     4     2     3   ar
     5     3     4   ar
     6     4     5   ar
     7     5     6   ar
     8     6    11    1
     9    11    12    1
    10    11    14    1
    11    14    15   ar
    12    15    16   ar
    13    16    17   ar
    14    17    18   ar
    15    18    19   ar
    16    11    20    1
    17    20    21    1
    18    20    22    1
    19     6     7   ar
    20     7     8   ar
    21     8     9   ar
    22     9    10   ar
    23    10    25    1
    24    25    26    1
    25    10     1   ar
    26     8     3   ar
    27    19    14   ar
    28    12    13    1
@<TRIPOS>MOLECULE
*****
 26 28 0 0 0
SMALL
GASTEIGER

@<TRIPOS>ATOM
      1 C          63.8825   82.7082   12.7325 C.ar    1  UNL1        0.1724
      2 C          63.9836   82.9823   11.2613 C.ar    1  UNL1        0.0400
      3 C          63.1907   84.0995   10.6502 C.ar    1  UNL1        0.0032
      4 C          63.2918   84.3736    9.1790 C.ar    1  UNL1       -0.0001
      5 C          62.4989   85.4907    8.5680 C.ar    1  UNL1       -0.0017
      6 C          61.6050   86.3338    9.4283 C.ar    1  UNL1        0.0056
      7 C          61.5039   86.0597   10.8996 C.ar    1  UNL1       -0.0016
      8 C          62.2968   84.9426   11.5105 C.ar    1  UNL1        0.0030
      9 C          62.1957   84.6684   12.9819 C.ar    1  UNL1        0.0400
     10 C          62.9886   83.5513   13.5928 C.ar    1  UNL1        0.1724
     11 C          60.8121   87.4510    8.8173 C.3     1  UNL1        0.1256
     12 O          60.5704   86.6123    7.5974 O.3     1  UNL1       -0.3786
     13 H          61.0017   85.7504    7.7070 H       1  UNL1        0.2111
     14 C          61.0538   88.2896   10.0372 C.ar    1  UNL1        0.0086
     15 C          59.9187   88.6098   10.9642 C.ar    1  UNL1        0.0190
     16 C          60.1604   89.4485   12.1841 C.ar    1  UNL1        0.0986
     17 N          61.5371   89.9670   12.4771 N.ar    1  UNL1       -0.2423
     18 C          62.6721   89.6469   11.5502 C.ar    1  UNL1        0.0986
     19 C          62.4305   88.8082   10.3302 C.ar    1  UNL1        0.0190
     20 C          60.0192   88.5682    8.2064 C.3     1  UNL1        0.0325
     21 C          58.8633   88.2600    7.3015 C.3     1  UNL1        0.0031
     22 C          60.3824   89.9936    8.5002 C.3     1  UNL1        0.0031
     23 C          63.9717   80.3888   13.8997 C.3     1  UNL1        0.2526
     24 O          64.6754   81.5910   13.3435 O.3     1  UNL1       -0.4684
     25 O          62.8875   83.2771   15.0641 O.3     1  UNL1       -0.4684
     26 C          62.4930   84.3756   16.0063 C.3     1  UNL1        0.2526
@<TRIPOS>BOND
     1    23    24    1
     2    24     1    1
     3     1     2   ar
     4     2     3   ar
     5     3     4   ar
     6     4     5   ar
     7     5     6   ar
     8     6    11    1
     9    11    12    1
    10    11    14    1
    11    14    15   ar
    12    15    16   ar
    13    16    17   ar
    14    17    18   ar
    15    18    19   ar
    16    11    20    1
    17    20    21    1
    18    20    22    1
    19     6     7   ar
    20     7     8   ar
    21     8     9   ar
    22     9    10   ar
    23    10    25    1
    24    25    26    1
    25    10     1   ar
    26     8     3   ar
    27    19    14   ar
    28    12    13    1
@<TRIPOS>MOLECULE
*****
 26 28 0 0 0
SMALL
GASTEIGER

@<TRIPOS>ATOM
      1 C          61.2506   88.1574   10.8248 C.ar    1  UNL1        0.1724
      2 C          62.2311   87.8168   11.9077 C.ar    1  UNL1        0.0400
      3 C          63.0938   88.8899   12.5029 C.ar    1  UNL1        0.0032
      4 C          64.0744   88.5493   13.5858 C.ar    1  UNL1       -0.0001
      5 C          64.9370   89.6224   14.1810 C.ar    1  UNL1       -0.0017
      6 C          64.8192   91.0360   13.6934 C.ar    1  UNL1        0.0056
      7 C          63.8386   91.3766   12.6106 C.ar    1  UNL1       -0.0016
      8 C          62.9760   90.3036   12.0153 C.ar    1  UNL1        0.0030
      9 C          61.9954   90.6441   10.9325 C.ar    1  UNL1        0.0400
     10 C          61.1327   89.5711   10.3372 C.ar    1  UNL1        0.1724
     11 C          65.6819   92.1091   14.2887 C.3     1  UNL1        0.1256
     12 O          64.8285   92.1109   15.5223 O.3     1  UNL1       -0.3786
     13 H          64.1186   91.4571   15.4253 H       1  UNL1        0.2111
     14 C          66.5352   92.1073   13.0551 C.ar    1  UNL1        0.0086
     15 C          65.9958   92.6602   11.7692 C.ar    1  UNL1        0.0190
     16 C          66.8492   92.6584   10.5356 C.ar    1  UNL1        0.0986
     17 N          68.2419   92.1037   10.5878 N.ar    1  UNL1       -0.2423
     18 C          68.7813   91.5509   11.8736 C.ar    1  UNL1        0.0986
     19 C          67.9279   91.5527   13.1073 C.ar    1  UNL1        0.0190
     20 C          66.5446   93.1821   14.8839 C.3     1  UNL1        0.0325
     21 C          66.7684   94.4642   14.1382 C.3     1  UNL1        0.0031
     22 C          67.1835   92.9730   16.2249 C.3     1  UNL1        0.0031
     23 C          61.0176   85.9302    9.5075 C.3     1  UNL1        0.2526
     24 O          60.3879   87.0844   10.2295 O.3     1  UNL1       -0.4684
     25 O          60.1522   89.9116    9.2543 O.3     1  UNL1       -0.4684
     26 C          59.9716   88.9860    8.0879 C.3     1  UNL1        0.2526
@<TRIPOS>BOND
     1    23    24    1
     2    24     1    1
     3     1     2   ar
     4     2     3   ar
     5     3     4   ar
     6     4     5   ar
     7     5     6   ar
     8     6    11    1
     9    11    12    1
    10    11    14    1
    11    14    15   ar
    12    15    16   ar
    13    16    17   ar
    14    17    18   ar
    15    18    19   ar
    16    11    20    1
    17    20    21    1
    18    20    22    1
    19     6     7   ar
    20     7     8   ar
    21     8     9   ar
    22     9    10   ar
    23    10    25    1
    24    25    26    1
    25    10     1   ar
    26     8     3   ar
    27    19    14   ar
    28    12    13    1
