@<TRIPOS>MOLECULE
*****
 12 13 0 0 0
SMALL
GASTEIGER

@<TRIPOS>ATOM
      1 C          66.2857   94.0322   11.7109 C.3     1  UNL1        0.0324
      2 C          66.3806   93.7072   13.1721 C.3     1  UNL1        0.0196
      3 C          66.2938   93.1384   14.5574 C.3     1  UNL1        0.0686
      4 N          65.4440   91.9037   14.4989 N.3     1  UNL1       -0.2975
      5 C          65.0057   91.7095   13.0776 C.3     1  UNL1        0.0686
      6 C          65.5845   92.8242   12.2576 C.3     1  UNL1        0.0183
      7 C          64.9996   92.3774   10.9506 C.3     1  UNL1        0.0015
      8 H          64.6281   92.0163   15.1005 H       1  UNL1        0.1232
      9 C          66.6357   94.9174   10.5515 C.3     1  UNL1        0.1422
     10 O          67.9136   94.6960    9.7979 O.3     1  UNL1       -0.3538
     11 C          68.4990   92.2066    9.3392 C.3     1  UNL1        0.0346
     12 C          68.0322   93.5436    8.8449 C.3     1  UNL1        0.1422
@<TRIPOS>BOND
     1    11    12    1
     2    12    10    1
     3    10     9    1
     4     1     9    1
     5     1     2    1
     6     2     3    1
     7     3     4    1
     8     4     5    1
     9     5     6    1
    10     6     7    1
    11     6     1    1
    12     6     2    1
    13     4     8    1
@<TRIPOS>MOLECULE
*****
 12 13 0 0 0
SMALL
GASTEIGER

@<TRIPOS>ATOM
      1 C          63.6550   82.5783   11.6584 C.3     1  UNL1        0.0324
      2 C          62.8277   81.5690   12.3978 C.3     1  UNL1        0.0196
      3 C          62.0330   80.7579   13.3779 C.3     1  UNL1        0.0686
      4 N          62.0168   81.4952   14.6841 N.3     1  UNL1       -0.2975
      5 C          62.8013   82.7619   14.5113 C.3     1  UNL1        0.0686
      6 C          63.3025   82.8075   13.0982 C.3     1  UNL1        0.0183
      7 C          64.0134   84.1222   13.2264 C.3     1  UNL1        0.0015
      8 H          62.4429   80.9206   15.4112 H       1  UNL1        0.1232
      9 C          64.3363   83.0287   10.4002 C.3     1  UNL1        0.1422
     10 O          63.5940   83.8715    9.4058 O.3     1  UNL1       -0.3538
     11 C          62.3194   86.0726    8.8767 C.3     1  UNL1        0.0346
     12 C          62.8049   85.0595    9.8705 C.3     1  UNL1        0.1422
@<TRIPOS>BOND
     1    11    12    1
     2    12    10    1
     3    10     9    1
     4     1     9    1
     5     1     2    1
     6     2     3    1
     7     3     4    1
     8     4     5    1
     9     5     6    1
    10     6     7    1
    11     6     1    1
    12     6     2    1
    13     4     8    1
@<TRIPOS>MOLECULE
*****
 12 13 0 0 0
SMALL
GASTEIGER

@<TRIPOS>ATOM
      1 C          66.1742   93.4997   11.3585 C.3     1  UNL1        0.0324
      2 C          66.3563   94.8742   10.7861 C.3     1  UNL1        0.0196
      3 C          66.7417   96.1062   10.0222 C.3     1  UNL1        0.0686
      4 N          67.7526   95.7121    8.9865 N.3     1  UNL1       -0.2975
      5 C          67.9920   94.2365    9.1103 C.3     1  UNL1        0.0686
      6 C          67.1290   93.7186   10.2225 C.3     1  UNL1        0.0183
      7 C          67.5680   92.2888   10.1088 C.3     1  UNL1        0.0015
      8 H          68.6241   96.2185    9.1431 H       1  UNL1        0.1232
      9 C          65.5179   92.5798   12.3449 C.3     1  UNL1        0.1422
     10 O          65.6082   92.8678   13.8142 O.3     1  UNL1       -0.3538
     11 C          67.3606   93.1073   15.7173 C.3     1  UNL1        0.0346
     12 C          66.8346   93.5240   14.3758 C.3     1  UNL1        0.1422
@<TRIPOS>BOND
     1    11    12    1
     2    12    10    1
     3    10     9    1
     4     1     9    1
     5     1     2    1
     6     2     3    1
     7     3     4    1
     8     4     5    1
     9     5     6    1
    10     6     7    1
    11     6     1    1
    12     6     2    1
    13     4     8    1
@<TRIPOS>MOLECULE
*****
 12 13 0 0 0
SMALL
GASTEIGER

@<TRIPOS>ATOM
      1 C          62.3562   85.1020   11.1751 C.3     1  UNL1        0.0324
      2 C          63.2740   84.1169   10.5140 C.3     1  UNL1        0.0196
      3 C          64.2749   83.0617   10.1469 C.3     1  UNL1        0.0686
      4 N          64.8644   82.5206   11.4157 N.3     1  UNL1       -0.2975
      5 C          64.2278   83.2415   12.5669 C.3     1  UNL1        0.0686
      6 C          63.2449   84.2280   12.0096 C.3     1  UNL1        0.0183
      7 C          62.7941   84.7661   13.3352 C.3     1  UNL1        0.0015
      8 H          65.8722   82.6777   11.4236 H       1  UNL1        0.1232
      9 C          61.3133   86.1755   11.0751 C.3     1  UNL1        0.1422
     10 O          61.2808   87.0806    9.8794 O.3     1  UNL1       -0.3538
     11 C          60.1501   86.0705    7.7696 C.3     1  UNL1        0.0346
     12 C          60.1231   87.0240    8.9272 C.3     1  UNL1        0.1422
@<TRIPOS>BOND
     1    11    12    1
     2    12    10    1
     3    10     9    1
     4     1     9    1
     5     1     2    1
     6     2     3    1
     7     3     4    1
     8     4     5    1
     9     5     6    1
    10     6     7    1
    11     6     1    1
    12     6     2    1
    13     4     8    1
@<TRIPOS>MOLECULE
*****
 12 13 0 0 0
SMALL
GASTEIGER

@<TRIPOS>ATOM
      1 C          63.3673   83.8449   12.8358 C.3     1  UNL1        0.0324
      2 C          62.5454   84.9123   12.1763 C.3     1  UNL1        0.0196
      3 C          61.8489   85.8670   11.2524 C.3     1  UNL1        0.0686
      4 N          62.2768   85.5504    9.8501 N.3     1  UNL1       -0.2975
      5 C          63.2378   84.4001    9.9072 C.3     1  UNL1        0.0686
      6 C          63.4038   84.0057   11.3449 C.3     1  UNL1        0.0183
      7 C          64.3725   82.8890   11.0903 C.3     1  UNL1        0.0015
      8 H          62.7336   86.3628    9.4358 H       1  UNL1        0.1232
      9 C          63.8208   83.1357   14.0773 C.3     1  UNL1        0.1422
     10 O          62.8611   82.2715   14.8404 O.3     1  UNL1       -0.3538
     11 C          62.3029   80.2912   13.2539 C.3     1  UNL1        0.0346
     12 C          61.8515   81.4413   14.1045 C.3     1  UNL1        0.1422
@<TRIPOS>BOND
     1    11    12    1
     2    12    10    1
     3    10     9    1
     4     1     9    1
     5     1     2    1
     6     2     3    1
     7     3     4    1
     8     4     5    1
     9     5     6    1
    10     6     7    1
    11     6     1    1
    12     6     2    1
    13     4     8    1
@<TRIPOS>MOLECULE
*****
 12 13 0 0 0
SMALL
GASTEIGER

@<TRIPOS>ATOM
      1 C          65.2253   92.0373   12.6109 C.3     1  UNL1        0.0324
      2 C          64.4410   91.2230   13.5967 C.3     1  UNL1        0.0196
      3 C          63.4761   90.3430   14.3347 C.3     1  UNL1        0.0686
      4 N          62.4486   89.8583   13.3553 N.3     1  UNL1       -0.2975
      5 C          62.7784   90.4387   12.0120 C.3     1  UNL1        0.0686
      6 C          64.0098   91.2822   12.1612 C.3     1  UNL1        0.0183
      7 C          64.0854   91.7048   10.7239 C.3     1  UNL1        0.0015
      8 H          61.5206   90.1655   13.6467 H       1  UNL1        0.1232
      9 C          66.3800   92.9434   12.3014 C.3     1  UNL1        0.1422
     10 O          67.5055   92.4557   11.4381 O.3     1  UNL1       -0.3538
     11 C          68.7100   92.4196    9.1364 C.3     1  UNL1        0.0346
     12 C          67.5089   92.7580    9.9688 C.3     1  UNL1        0.1422
@<TRIPOS>BOND
     1    11    12    1
     2    12    10    1
     3    10     9    1
     4     1     9    1
     5     1     2    1
     6     2     3    1
     7     3     4    1
     8     4     5    1
     9     5     6    1
    10     6     7    1
    11     6     1    1
    12     6     2    1
    13     4     8    1
@<TRIPOS>MOLECULE
*****
 12 13 0 0 0
SMALL
GASTEIGER

@<TRIPOS>ATOM
      1 C          62.7420   83.6206   12.5820 C.3     1  UNL1        0.0324
      2 C          62.2463   82.5483   13.5064 C.3     1  UNL1        0.0196
      3 C          61.8602   81.2815   14.2106 C.3     1  UNL1        0.0686
      4 N          62.2808   80.1266   13.3508 N.3     1  UNL1       -0.2975
      5 C          62.9269   80.6796   12.1152 C.3     1  UNL1        0.0686
      6 C          62.9056   82.1764   12.2113 C.3     1  UNL1        0.0183
      7 C          63.5858   82.4275   10.8982 C.3     1  UNL1        0.0015
      8 H          61.4651   79.5701   13.0954 H       1  UNL1        0.1232
      9 C          62.9338   85.0736   12.2623 C.3     1  UNL1        0.1422
     10 O          61.7591   85.9137   11.8569 O.3     1  UNL1       -0.3538
     11 C          62.3888   85.8044    9.3387 C.3     1  UNL1        0.0346
     12 C          61.3606   85.9989   10.4133 C.3     1  UNL1        0.1422
@<TRIPOS>BOND
     1    11    12    1
     2    12    10    1
     3    10     9    1
     4     1     9    1
     5     1     2    1
     6     2     3    1
     7     3     4    1
     8     4     5    1
     9     5     6    1
    10     6     7    1
    11     6     1    1
    12     6     2    1
    13     4     8    1
@<TRIPOS>MOLECULE
*****
 12 13 0 0 0
SMALL
GASTEIGER

@<TRIPOS>ATOM
      1 C          66.6287   91.6957   14.2552 C.3     1  UNL1        0.0324
      2 C          65.2354   91.1997   14.5055 C.3     1  UNL1        0.0196
      3 C          63.8669   90.8675   15.0220 C.3     1  UNL1        0.0686
      4 N          63.6943   91.5476   16.3478 N.3     1  UNL1       -0.2975
      5 C          64.9560   92.3000   16.6507 C.3     1  UNL1        0.0686
      6 C          65.9086   92.0850   15.5120 C.3     1  UNL1        0.0183
      7 C          67.0198   92.9189   16.0776 C.3     1  UNL1        0.0015
      8 H          63.5233   90.8519   17.0740 H       1  UNL1        0.1232
      9 C          67.8490   91.7573   13.3850 C.3     1  UNL1        0.1422
     10 O          67.7563   92.3331   12.0030 O.3     1  UNL1       -0.3538
     11 C          66.1988   94.4048   11.8240 C.3     1  UNL1        0.0346
     12 C          66.4757   92.9591   11.5357 C.3     1  UNL1        0.1422
@<TRIPOS>BOND
     1    11    12    1
     2    12    10    1
     3    10     9    1
     4     1     9    1
     5     1     2    1
     6     2     3    1
     7     3     4    1
     8     4     5    1
     9     5     6    1
    10     6     7    1
    11     6     1    1
    12     6     2    1
    13     4     8    1
@<TRIPOS>MOLECULE
*****
 12 13 0 0 0
SMALL
GASTEIGER

@<TRIPOS>ATOM
      1 C          65.4553   91.9293   13.0268 C.3     1  UNL1        0.0324
      2 C          64.4957   91.0834   13.8101 C.3     1  UNL1        0.0196
      3 C          63.3808   90.2200   14.3216 C.3     1  UNL1        0.0686
      4 N          62.4374   89.9596   13.1849 N.3     1  UNL1       -0.2975
      5 C          62.9692   90.6620   11.9709 C.3     1  UNL1        0.0686
      6 C          64.2413   91.3566   12.3573 C.3     1  UNL1        0.0183
      7 C          64.5194   91.9392   11.0033 C.3     1  UNL1        0.0015
      8 H          61.5109   90.3191   13.4147 H       1  UNL1        0.1232
      9 C          66.7103   92.7483   12.9610 C.3     1  UNL1        0.1422
     10 O          67.9685   92.2457   13.6047 O.3     1  UNL1       -0.3538
     11 C          67.3957   92.6811   16.1011 C.3     1  UNL1        0.0346
     12 C          68.3684   92.7458   14.9611 C.3     1  UNL1        0.1422
@<TRIPOS>BOND
     1    11    12    1
     2    12    10    1
     3    10     9    1
     4     1     9    1
     5     1     2    1
     6     2     3    1
     7     3     4    1
     8     4     5    1
     9     5     6    1
    10     6     7    1
    11     6     1    1
    12     6     2    1
    13     4     8    1
