@<TRIPOS>MOLECULE
*****
 27 30 0 0 0
SMALL
GASTEIGER

@<TRIPOS>ATOM
      1 C          64.1134   89.4415   14.2599 C.ar    1  UNL1        0.0534
      2 C          63.4140   89.5655   12.9388 C.ar    1  UNL1        0.0045
      3 C          63.7361   90.7099   12.0241 C.ar    1  UNL1        0.0001
      4 C          64.7575   91.7303   12.4306 C.ar    1  UNL1       -0.0002
      5 C          65.0796   92.8747   11.5159 C.ar    1  UNL1       -0.0017
      6 C          66.1011   93.8951   11.9224 C.ar    1  UNL1        0.0071
      7 C          66.8006   93.7712   13.2435 C.ar    1  UNL1       -0.0017
      8 C          66.4785   92.6268   14.1582 C.ar    1  UNL1       -0.0002
      9 C          65.4570   91.6063   13.7517 C.ar    1  UNL1        0.0001
     10 C          65.1349   90.4619   14.6663 C.ar    1  UNL1        0.0045
     11 C          66.4231   95.0395   11.0077 C.3     1  UNL1        0.1432
     12 O          65.6491   95.8492   12.0053 O.3     1  UNL1       -0.3770
     13 C          66.5834   96.3532   10.3016 C.3     1  UNL1        0.0614
     14 C          67.3891   96.1162    9.0588 C.3     1  UNL1        0.1105
     15 N          67.7268   94.6560    8.9968 N.ar    1  UNL1       -0.3101
     16 C          68.4335   93.6071    8.1903 C.ar    1  UNL1        0.1784
     17 N          68.2733   92.2934    8.8964 N.ar    1  UNL1       -0.2226
     18 C          67.4676   92.5304   10.1392 C.ar    1  UNL1        0.1160
     19 C          67.1298   93.9906   10.2012 C.ar    1  UNL1        0.0859
     20 H          65.6301   96.7772   11.7236 H       1  UNL1        0.2112
     21 N          64.1140   86.8920   14.7602 N.am    1  UNL1       -0.3025
     22 C          63.7914   88.2971   15.1745 C.2     1  UNL1        0.2458
     23 O          63.1466   88.5577   16.5036 O.2     1  UNL1       -0.2701
     24 H          64.5372   86.7210   13.8879 H       1  UNL1        0.1497
     25 C          64.1114   84.3422   15.2589 C.3     1  UNL1        0.0213
     26 C          63.7920   85.7476   15.6748 C.3     1  UNL1        0.0720
     27 C          63.1506   86.0085   17.0054 C.3     1  UNL1        0.0213
@<TRIPOS>BOND
     1    25    26    1
     2    26    27    1
     3    26    21    1
     4    21    22   am
     5    22    23    2
     6    22     1    1
     7     1     2   ar
     8     2     3   ar
     9     3     4   ar
    10     4     5   ar
    11     5     6   ar
    12     6    11    1
    13    11    12    1
    14    11    13    1
    15    13    14    1
    16    14    15    1
    17    15    16   ar
    18    16    17   ar
    19    17    18   ar
    20    18    19   ar
    21     6     7   ar
    22     7     8   ar
    23     8     9   ar
    24     9    10   ar
    25    10     1   ar
    26     9     4   ar
    27    19    11    1
    28    19    15   ar
    29    21    24    1
    30    12    20    1
@<TRIPOS>MOLECULE
*****
 27 30 0 0 0
SMALL
GASTEIGER

@<TRIPOS>ATOM
      1 C          64.1624   89.1878   13.6199 C.ar    1  UNL1        0.0534
      2 C          63.3031   88.8283   12.4442 C.ar    1  UNL1        0.0045
      3 C          62.8521   87.4109   12.2502 C.ar    1  UNL1        0.0001
      4 C          63.2605   86.3529   13.2319 C.ar    1  UNL1       -0.0002
      5 C          62.8096   84.9355   13.0380 C.ar    1  UNL1       -0.0017
      6 C          63.2180   83.8776   14.0197 C.ar    1  UNL1        0.0071
      7 C          64.0774   84.2370   15.1955 C.ar    1  UNL1       -0.0017
      8 C          64.5283   85.6544   15.3894 C.ar    1  UNL1       -0.0002
      9 C          64.1199   86.7124   14.4076 C.ar    1  UNL1        0.0001
     10 C          64.5708   88.1298   14.6016 C.ar    1  UNL1        0.0045
     11 C          62.7670   82.4602   13.8257 C.3     1  UNL1        0.1432
     12 O          62.2208   82.6098   15.2146 O.3     1  UNL1       -0.3770
     13 C          62.2019   81.0741   13.9221 C.3     1  UNL1        0.0614
     14 C          62.4932   80.3641   12.6333 C.3     1  UNL1        0.1105
     15 N          63.2384   81.3114   11.7404 N.ar    1  UNL1       -0.3101
     16 C          63.8790   81.4580   10.3920 C.ar    1  UNL1        0.1784
     17 N          64.4441   82.8441   10.2955 N.ar    1  UNL1       -0.2226
     18 C          64.1528   83.5541   11.5844 C.ar    1  UNL1        0.1160
     19 C          63.4076   82.6068   12.4773 C.ar    1  UNL1        0.0859
     20 H          61.7915   81.7828   15.4841 H       1  UNL1        0.2112
     21 N          65.8904   90.8923   14.5463 N.am    1  UNL1       -0.3025
     22 C          64.6133   90.6052   13.8138 C.2     1  UNL1        0.2458
     23 O          63.7872   91.7354   13.2754 O.2     1  UNL1       -0.2701
     24 H          66.4327   90.1505   14.8997 H       1  UNL1        0.1497
     25 C          66.4770   93.2222   13.5574 C.3     1  UNL1        0.0213
     26 C          66.3414   92.3097   14.7403 C.3     1  UNL1        0.0720
     27 C          66.6567   92.8147   16.1170 C.3     1  UNL1        0.0213
@<TRIPOS>BOND
     1    25    26    1
     2    26    27    1
     3    26    21    1
     4    21    22   am
     5    22    23    2
     6    22     1    1
     7     1     2   ar
     8     2     3   ar
     9     3     4   ar
    10     4     5   ar
    11     5     6   ar
    12     6    11    1
    13    11    12    1
    14    11    13    1
    15    13    14    1
    16    14    15    1
    17    15    16   ar
    18    16    17   ar
    19    17    18   ar
    20    18    19   ar
    21     6     7   ar
    22     7     8   ar
    23     8     9   ar
    24     9    10   ar
    25    10     1   ar
    26     9     4   ar
    27    19    11    1
    28    19    15   ar
    29    21    24    1
    30    12    20    1
@<TRIPOS>MOLECULE
*****
 27 30 0 0 0
SMALL
GASTEIGER

@<TRIPOS>ATOM
      1 C          62.2967   88.6967   10.6088 C.ar    1  UNL1        0.0534
      2 C          62.5696   87.8318   11.8035 C.ar    1  UNL1        0.0045
      3 C          63.3999   88.3582   12.9365 C.ar    1  UNL1        0.0001
      4 C          63.9572   89.7494   12.8748 C.ar    1  UNL1       -0.0002
      5 C          64.7875   90.2757   14.0078 C.ar    1  UNL1       -0.0017
      6 C          65.3448   91.6669   13.9461 C.ar    1  UNL1        0.0071
      7 C          65.0719   92.5319   12.7513 C.ar    1  UNL1       -0.0017
      8 C          64.2417   92.0056   11.6183 C.ar    1  UNL1       -0.0002
      9 C          63.6843   90.6143   11.6801 C.ar    1  UNL1        0.0001
     10 C          62.8541   90.0879   10.5471 C.ar    1  UNL1        0.0045
     11 C          66.1750   92.1932   15.0791 C.3     1  UNL1        0.1432
     12 O          64.8601   92.2779   15.7957 O.3     1  UNL1       -0.3770
     13 C          66.7304   92.7372   16.3618 C.3     1  UNL1        0.0614
     14 C          68.2150   92.8787   16.2012 C.3     1  UNL1        0.1105
     15 N          68.5772   92.4221   14.8190 N.ar    1  UNL1       -0.3101
     16 C          69.7187   92.2274   13.8655 C.ar    1  UNL1        0.1784
     17 N          69.1634   91.6833   12.5827 N.ar    1  UNL1       -0.2226
     18 C          67.6787   91.5419   12.7434 C.ar    1  UNL1        0.1160
     19 C          67.3165   91.9985   14.1255 C.ar    1  UNL1        0.0859
     20 H          65.0013   92.6242   16.6907 H       1  UNL1        0.2112
     21 N          60.3592   89.0064    8.9059 N.am    1  UNL1       -0.3025
     22 C          61.4665   88.1704    9.4758 C.2     1  UNL1        0.2458
     23 O          61.7436   86.8081    8.9127 O.2     1  UNL1       -0.2701
     24 H          60.1773   89.9006    9.2755 H       1  UNL1        0.1497
     25 C          59.2630   89.3421    6.5744 C.3     1  UNL1        0.0213
     26 C          59.5289   88.4801    7.7729 C.3     1  UNL1        0.0720
     27 C          58.9646   87.0919    7.8384 C.3     1  UNL1        0.0213
@<TRIPOS>BOND
     1    25    26    1
     2    26    27    1
     3    26    21    1
     4    21    22   am
     5    22    23    2
     6    22     1    1
     7     1     2   ar
     8     2     3   ar
     9     3     4   ar
    10     4     5   ar
    11     5     6   ar
    12     6    11    1
    13    11    12    1
    14    11    13    1
    15    13    14    1
    16    14    15    1
    17    15    16   ar
    18    16    17   ar
    19    17    18   ar
    20    18    19   ar
    21     6     7   ar
    22     7     8   ar
    23     8     9   ar
    24     9    10   ar
    25    10     1   ar
    26     9     4   ar
    27    19    11    1
    28    19    15   ar
    29    21    24    1
    30    12    20    1
@<TRIPOS>MOLECULE
*****
 27 30 0 0 0
SMALL
GASTEIGER

@<TRIPOS>ATOM
      1 C          65.1500   91.8339   13.4774 C.ar    1  UNL1        0.0534
      2 C          65.4325   92.3080   12.0826 C.ar    1  UNL1        0.0045
      3 C          64.5542   91.8685   10.9488 C.ar    1  UNL1        0.0001
      4 C          63.3935   90.9551   11.2098 C.ar    1  UNL1       -0.0002
      5 C          62.5152   90.5157   10.0759 C.ar    1  UNL1       -0.0017
      6 C          61.3544   89.6022   10.3369 C.ar    1  UNL1        0.0071
      7 C          61.0718   89.1281   11.7317 C.ar    1  UNL1       -0.0017
      8 C          61.9501   89.5676   12.8656 C.ar    1  UNL1       -0.0002
      9 C          63.1110   90.4811   12.6045 C.ar    1  UNL1        0.0001
     10 C          63.9892   90.9205   13.7384 C.ar    1  UNL1        0.0045
     11 C          60.4761   89.1628    9.2031 C.3     1  UNL1        0.1432
     12 O          59.8806   90.5325    9.3410 O.3     1  UNL1       -0.3770
     13 C          59.4734   89.0096    8.0981 C.3     1  UNL1        0.0614
     14 C          59.6328   87.6372    7.5143 C.3     1  UNL1        0.1105
     15 N          60.7342   86.9420    8.2585 N.ar    1  UNL1       -0.3101
     16 C          61.5134   85.6641    8.3576 C.ar    1  UNL1        0.1784
     17 N          62.5162   85.8172    9.4626 N.ar    1  UNL1       -0.2226
     18 C          62.3567   87.1897   10.0464 C.ar    1  UNL1        0.1160
     19 C          61.2554   87.8849    9.3022 C.ar    1  UNL1        0.0859
     20 H          59.1756   90.6461    8.6845 H       1  UNL1        0.2112
     21 N          67.5019   92.4497   14.3937 N.am    1  UNL1       -0.3025
     22 C          66.0283   92.2734   14.6112 C.2     1  UNL1        0.2458
     23 O          65.4329   92.5365   15.9626 O.2     1  UNL1       -0.2701
     24 H          67.8926   92.2769   13.5067 H       1  UNL1        0.1497
     25 C          68.8843   91.8828   16.5191 C.3     1  UNL1        0.0213
     26 C          68.3801   92.8891   15.5275 C.3     1  UNL1        0.0720
     27 C          68.7542   94.3347   15.6697 C.3     1  UNL1        0.0213
@<TRIPOS>BOND
     1    25    26    1
     2    26    27    1
     3    26    21    1
     4    21    22   am
     5    22    23    2
     6    22     1    1
     7     1     2   ar
     8     2     3   ar
     9     3     4   ar
    10     4     5   ar
    11     5     6   ar
    12     6    11    1
    13    11    12    1
    14    11    13    1
    15    13    14    1
    16    14    15    1
    17    15    16   ar
    18    16    17   ar
    19    17    18   ar
    20    18    19   ar
    21     6     7   ar
    22     7     8   ar
    23     8     9   ar
    24     9    10   ar
    25    10     1   ar
    26     9     4   ar
    27    19    11    1
    28    19    15   ar
    29    21    24    1
    30    12    20    1
@<TRIPOS>MOLECULE
*****
 27 30 0 0 0
SMALL
GASTEIGER

@<TRIPOS>ATOM
      1 C          62.2893   89.5747   10.3493 C.ar    1  UNL1        0.0534
      2 C          62.7601   90.9342    9.9249 C.ar    1  UNL1        0.0045
      3 C          63.6422   91.7395   10.8323 C.ar    1  UNL1        0.0001
      4 C          64.0536   91.1853   12.1640 C.ar    1  UNL1       -0.0002
      5 C          64.9357   91.9906   13.0714 C.ar    1  UNL1       -0.0017
      6 C          65.3471   91.4365   14.4032 C.ar    1  UNL1        0.0071
      7 C          64.8762   90.0770   14.8277 C.ar    1  UNL1       -0.0017
      8 C          63.9941   89.2717   13.9203 C.ar    1  UNL1       -0.0002
      9 C          63.5828   89.8259   12.5885 C.ar    1  UNL1        0.0001
     10 C          62.7006   89.0206   11.6811 C.ar    1  UNL1        0.0045
     11 C          66.2292   92.2418   15.3105 C.3     1  UNL1        0.1432
     12 O          64.9996   92.3344   16.1646 O.3     1  UNL1       -0.3770
     13 C          66.8543   93.0664   16.3964 C.3     1  UNL1        0.0614
     14 C          68.2858   93.3152   16.0238 C.3     1  UNL1        0.1105
     15 N          68.5454   92.6443   14.7076 N.ar    1  UNL1       -0.3101
     16 C          69.5907   92.3833   13.6638 C.ar    1  UNL1        0.1784
     17 N          68.9656   91.5587   12.5778 N.ar    1  UNL1       -0.2226
     18 C          67.5340   91.3099   12.9505 C.ar    1  UNL1        0.1160
     19 C          67.2744   91.9809   14.2667 C.ar    1  UNL1        0.0859
     20 H          65.1966   92.8539   16.9597 H       1  UNL1        0.2112
     21 N          61.6639   87.3037    9.2534 N.am    1  UNL1       -0.3025
     22 C          61.4071   88.7694    9.4420 C.2     1  UNL1        0.2458
     23 O          60.2682   89.4298    8.7232 O.2     1  UNL1       -0.2701
     24 H          62.4114   86.8702    9.7251 H       1  UNL1        0.1497
     25 C          59.3009   86.7372    8.3339 C.3     1  UNL1        0.0213
     26 C          60.7818   86.4983    8.3460 C.3     1  UNL1        0.0720
     27 C          61.3804   85.4542    7.4509 C.3     1  UNL1        0.0213
@<TRIPOS>BOND
     1    25    26    1
     2    26    27    1
     3    26    21    1
     4    21    22   am
     5    22    23    2
     6    22     1    1
     7     1     2   ar
     8     2     3   ar
     9     3     4   ar
    10     4     5   ar
    11     5     6   ar
    12     6    11    1
    13    11    12    1
    14    11    13    1
    15    13    14    1
    16    14    15    1
    17    15    16   ar
    18    16    17   ar
    19    17    18   ar
    20    18    19   ar
    21     6     7   ar
    22     7     8   ar
    23     8     9   ar
    24     9    10   ar
    25    10     1   ar
    26     9     4   ar
    27    19    11    1
    28    19    15   ar
    29    21    24    1
    30    12    20    1
@<TRIPOS>MOLECULE
*****
 27 30 0 0 0
SMALL
GASTEIGER

@<TRIPOS>ATOM
      1 C          64.0189   89.0847   14.0142 C.ar    1  UNL1        0.0534
      2 C          63.2155   89.0695   12.7476 C.ar    1  UNL1        0.0045
      3 C          62.9620   87.7737   12.0358 C.ar    1  UNL1        0.0001
      4 C          63.5118   86.4931   12.5906 C.ar    1  UNL1       -0.0002
      5 C          63.2582   85.1973   11.8788 C.ar    1  UNL1       -0.0017
      6 C          63.8080   83.9168   12.4336 C.ar    1  UNL1        0.0071
      7 C          64.6114   83.9319   13.7003 C.ar    1  UNL1       -0.0017
      8 C          64.8649   85.2277   14.4121 C.ar    1  UNL1       -0.0002
      9 C          64.3151   86.5083   13.8572 C.ar    1  UNL1        0.0001
     10 C          64.5686   87.8041   14.5690 C.ar    1  UNL1        0.0045
     11 C          63.5544   82.6210   11.7218 C.3     1  UNL1        0.1432
     12 O          64.4007   83.2294   10.6432 O.3     1  UNL1       -0.3770
     13 C          63.4778   81.4524   10.7845 C.3     1  UNL1        0.0614
     14 C          62.6371   80.3927   11.4327 C.3     1  UNL1        0.1105
     15 N          62.1942   80.9063   12.7706 N.ar    1  UNL1       -0.3101
     16 C          61.4009   80.5687   13.9981 C.ar    1  UNL1        0.1784
     17 N          61.4775   81.7372   14.9355 N.ar    1  UNL1       -0.2226
     18 C          62.3182   82.7970   14.2872 C.ar    1  UNL1        0.1160
     19 C          62.7611   82.2834   12.9493 C.ar    1  UNL1        0.0859
     20 H          64.4819   82.6052    9.9052 H       1  UNL1        0.2112
     21 N          65.6129   91.0449   14.6195 N.am    1  UNL1       -0.3025
     22 C          64.2724   90.3804   14.7261 C.2     1  UNL1        0.2458
     23 O          63.1854   91.0118   15.5445 O.2     1  UNL1       -0.2701
     24 H          66.3264   90.6305   14.0823 H       1  UNL1        0.1497
     25 C          65.4197   92.5156   16.7525 C.3     1  UNL1        0.0213
     26 C          65.8665   92.3407   15.3313 C.3     1  UNL1        0.0720
     27 C          66.5668   93.4615   14.6219 C.3     1  UNL1        0.0213
@<TRIPOS>BOND
     1    25    26    1
     2    26    27    1
     3    26    21    1
     4    21    22   am
     5    22    23    2
     6    22     1    1
     7     1     2   ar
     8     2     3   ar
     9     3     4   ar
    10     4     5   ar
    11     5     6   ar
    12     6    11    1
    13    11    12    1
    14    11    13    1
    15    13    14    1
    16    14    15    1
    17    15    16   ar
    18    16    17   ar
    19    17    18   ar
    20    18    19   ar
    21     6     7   ar
    22     7     8   ar
    23     8     9   ar
    24     9    10   ar
    25    10     1   ar
    26     9     4   ar
    27    19    11    1
    28    19    15   ar
    29    21    24    1
    30    12    20    1
@<TRIPOS>MOLECULE
*****
 27 30 0 0 0
SMALL
GASTEIGER

@<TRIPOS>ATOM
      1 C          61.8081   89.1613   10.3429 C.ar    1  UNL1        0.0534
      2 C          62.1373   88.3346   11.5504 C.ar    1  UNL1        0.0045
      3 C          63.1841   88.8029   12.5173 C.ar    1  UNL1        0.0001
      4 C          63.9017   90.0979   12.2767 C.ar    1  UNL1       -0.0002
      5 C          64.9485   90.5662   13.2436 C.ar    1  UNL1       -0.0017
      6 C          65.6661   91.8612   13.0030 C.ar    1  UNL1        0.0071
      7 C          65.3369   92.6880   11.7955 C.ar    1  UNL1       -0.0017
      8 C          64.2901   92.2197   10.8286 C.ar    1  UNL1       -0.0002
      9 C          63.5725   90.9246   11.0692 C.ar    1  UNL1        0.0001
     10 C          62.5257   90.4563   10.1023 C.ar    1  UNL1        0.0045
     11 C          66.7129   92.3295   13.9699 C.3     1  UNL1        0.1432
     12 O          67.5928   92.3671   12.7558 O.3     1  UNL1       -0.3770
     13 C          67.9436   92.8057   14.6830 C.3     1  UNL1        0.0614
     14 C          67.6055   92.9645   16.1357 C.3     1  UNL1        0.1105
     15 N          66.1657   92.5866   16.3205 N.ar    1  UNL1       -0.3101
     16 C          65.0668   92.4511   17.3325 C.ar    1  UNL1        0.1784
     17 N          63.8360   91.9750   16.6195 N.ar    1  UNL1       -0.2226
     18 C          64.1743   91.8161   15.1667 C.ar    1  UNL1        0.1160
     19 C          65.6140   92.1941   14.9819 C.ar    1  UNL1        0.0859
     20 H          68.4807   92.6646   13.0090 H       1  UNL1        0.2112
     21 N          60.4570   89.5020    8.1501 N.am    1  UNL1       -0.3025
     22 C          60.7612   88.6930    9.3761 C.2     1  UNL1        0.2458
     23 O          60.0187   87.4158    9.6351 O.2     1  UNL1       -0.2701
     24 H          60.9444   90.3403    7.9801 H       1  UNL1        0.1497
     25 C          58.8411   87.6512    7.3054 C.3     1  UNL1        0.0213
     26 C          59.4102   89.0337    7.1832 C.3     1  UNL1        0.0720
     27 C          58.9324   89.9478    6.0942 C.3     1  UNL1        0.0213
@<TRIPOS>BOND
     1    25    26    1
     2    26    27    1
     3    26    21    1
     4    21    22   am
     5    22    23    2
     6    22     1    1
     7     1     2   ar
     8     2     3   ar
     9     3     4   ar
    10     4     5   ar
    11     5     6   ar
    12     6    11    1
    13    11    12    1
    14    11    13    1
    15    13    14    1
    16    14    15    1
    17    15    16   ar
    18    16    17   ar
    19    17    18   ar
    20    18    19   ar
    21     6     7   ar
    22     7     8   ar
    23     8     9   ar
    24     9    10   ar
    25    10     1   ar
    26     9     4   ar
    27    19    11    1
    28    19    15   ar
    29    21    24    1
    30    12    20    1
@<TRIPOS>MOLECULE
*****
 27 30 0 0 0
SMALL
GASTEIGER

@<TRIPOS>ATOM
      1 C          65.9976   93.3587   12.3264 C.ar    1  UNL1        0.0534
      2 C          66.5879   93.4907   13.6990 C.ar    1  UNL1        0.0045
      3 C          66.1550   92.5616   14.7941 C.ar    1  UNL1        0.0001
      4 C          65.1318   91.5005   14.5167 C.ar    1  UNL1       -0.0002
      5 C          64.6989   90.5714   15.6118 C.ar    1  UNL1       -0.0017
      6 C          63.6756   89.5103   15.3344 C.ar    1  UNL1        0.0071
      7 C          63.0853   89.3782   13.9617 C.ar    1  UNL1       -0.0017
      8 C          63.5182   90.3074   12.8666 C.ar    1  UNL1       -0.0002
      9 C          64.5414   91.3685   13.1441 C.ar    1  UNL1        0.0001
     10 C          64.9744   92.2976   12.0489 C.ar    1  UNL1        0.0045
     11 C          63.2427   88.5812   16.4295 C.3     1  UNL1        0.1432
     12 O          62.7952   89.8420   17.1075 O.3     1  UNL1       -0.3770
     13 C          62.7163   87.9156   17.6664 C.3     1  UNL1        0.0614
     14 C          62.9290   86.4377   17.5238 C.3     1  UNL1        0.1105
     15 N          63.5869   86.1897   16.1988 N.ar    1  UNL1       -0.3101
     16 C          64.1249   85.1231   15.2917 C.ar    1  UNL1        0.1784
     17 N          64.6514   85.7885   14.0548 N.ar    1  UNL1       -0.2226
     18 C          64.4387   87.2666   14.1975 C.ar    1  UNL1        0.1160
     19 C          63.7808   87.5145   15.5225 C.ar    1  UNL1        0.0859
     20 H          62.4047   89.6250   17.9685 H       1  UNL1        0.2112
     21 N          66.4559   93.8109    9.8094 N.am    1  UNL1       -0.3025
     22 C          66.4305   94.2878   11.2312 C.2     1  UNL1        0.2458
     23 O          66.8379   95.6939   11.5580 O.2     1  UNL1       -0.2701
     24 H          66.1885   92.8880    9.5949 H       1  UNL1        0.1497
     25 C          68.0583   94.3821    7.8457 C.3     1  UNL1        0.0213
     26 C          66.8888   94.7400    8.7142 C.3     1  UNL1        0.0720
     27 C          66.1523   96.0269    8.4876 C.3     1  UNL1        0.0213
@<TRIPOS>BOND
     1    25    26    1
     2    26    27    1
     3    26    21    1
     4    21    22   am
     5    22    23    2
     6    22     1    1
     7     1     2   ar
     8     2     3   ar
     9     3     4   ar
    10     4     5   ar
    11     5     6   ar
    12     6    11    1
    13    11    12    1
    14    11    13    1
    15    13    14    1
    16    14    15    1
    17    15    16   ar
    18    16    17   ar
    19    17    18   ar
    20    18    19   ar
    21     6     7   ar
    22     7     8   ar
    23     8     9   ar
    24     9    10   ar
    25    10     1   ar
    26     9     4   ar
    27    19    11    1
    28    19    15   ar
    29    21    24    1
    30    12    20    1
@<TRIPOS>MOLECULE
*****
 27 30 0 0 0
SMALL
GASTEIGER

@<TRIPOS>ATOM
      1 C          62.2157   87.2244   10.1201 C.ar    1  UNL1        0.0534
      2 C          62.5829   86.4010   11.3189 C.ar    1  UNL1        0.0045
      3 C          63.1187   87.0677   12.5511 C.ar    1  UNL1        0.0001
      4 C          63.2872   88.5578   12.5846 C.ar    1  UNL1       -0.0002
      5 C          63.8230   89.2245   13.8168 C.ar    1  UNL1       -0.0017
      6 C          63.9916   90.7146   13.8503 C.ar    1  UNL1        0.0071
      7 C          63.6244   91.5381   12.6515 C.ar    1  UNL1       -0.0017
      8 C          63.0886   90.8714   11.4192 C.ar    1  UNL1       -0.0002
      9 C          62.9200   89.3812   11.3858 C.ar    1  UNL1        0.0001
     10 C          62.3842   88.7145   10.1535 C.ar    1  UNL1        0.0045
     11 C          64.5274   91.3813   15.0826 C.3     1  UNL1        0.1432
     12 O          63.2321   90.9374   15.6950 O.3     1  UNL1       -0.3770
     13 C          64.7924   91.9552   16.4428 C.3     1  UNL1        0.0614
     14 C          66.1394   92.6144   16.4134 C.3     1  UNL1        0.1105
     15 N          66.7070   92.4480   15.0349 N.ar    1  UNL1       -0.3101
     16 C          67.8903   92.7525   14.1648 C.ar    1  UNL1        0.1784
     17 N          67.6253   92.1786   12.8045 N.ar    1  UNL1       -0.2226
     18 C          66.2782   91.5194   12.8340 C.ar    1  UNL1        0.1160
     19 C          65.7107   91.6859   14.2124 C.ar    1  UNL1        0.0859
     20 H          63.1984   91.2220   16.6217 H       1  UNL1        0.2112
     21 N          62.5280   85.5731    8.1388 N.am    1  UNL1       -0.3025
     22 C          61.6799   86.5577    8.8878 C.2     1  UNL1        0.2458
     23 O          60.2959   86.8757    8.4046 O.2     1  UNL1       -0.2701
     24 H          63.4364   85.3644    8.4560 H       1  UNL1        0.1497
     25 C          62.9364   84.4073    5.8531 C.3     1  UNL1        0.0213
     26 C          61.9922   84.9064    6.9066 C.3     1  UNL1        0.0720
     27 C          60.5124   84.7388    6.7277 C.3     1  UNL1        0.0213
@<TRIPOS>BOND
     1    25    26    1
     2    26    27    1
     3    26    21    1
     4    21    22   am
     5    22    23    2
     6    22     1    1
     7     1     2   ar
     8     2     3   ar
     9     3     4   ar
    10     4     5   ar
    11     5     6   ar
    12     6    11    1
    13    11    12    1
    14    11    13    1
    15    13    14    1
    16    14    15    1
    17    15    16   ar
    18    16    17   ar
    19    17    18   ar
    20    18    19   ar
    21     6     7   ar
    22     7     8   ar
    23     8     9   ar
    24     9    10   ar
    25    10     1   ar
    26     9     4   ar
    27    19    11    1
    28    19    15   ar
    29    21    24    1
    30    12    20    1
