@<TRIPOS>MOLECULE
*****
 21 24 0 0 0
SMALL
GASTEIGER

@<TRIPOS>ATOM
      1 O          63.8114   85.9271   13.7243 O.2     1  UNL1       -0.2448
      2 C          62.9503   85.4542   12.5909 C.2     1  UNL1        0.3428
      3 C          63.1520   84.0831   12.0170 C.2     1  UNL1        0.0958
      4 C          63.8259   83.7623   10.7158 C.2     1  UNL1        0.1049
      5 N          63.8056   82.2730   10.5383 N.2     1  UNL1       -0.2476
      6 C          63.1193   81.6734   11.7296 C.2     1  UNL1        0.0636
      7 C          62.8099   80.2532   12.1004 C.3     1  UNL1        0.0717
      8 C          62.0967   79.9518   13.3850 C.2     1  UNL1       -0.0198
      9 C          61.6927   81.0706   14.2989 C.2     1  UNL1       -0.0041
     10 C          62.0020   82.4907   13.9282 C.2     1  UNL1        0.0011
     11 C          62.7153   82.7921   12.6436 C.2     1  UNL1        0.0216
     12 O          61.8873   86.3526   12.0312 O.3     1  UNL1       -0.4454
     13 C          62.1196   87.0730   10.7362 C.3     1  UNL1        0.2087
     14 C          61.3855   86.6477    9.4992 C.3     1  UNL1        0.0445
     15 C          62.0602   85.7627    8.4935 C.3     1  UNL1        0.0210
     16 C          61.3259   85.3375    7.2566 C.3     1  UNL1        0.0722
     17 N          59.9169   85.7972    7.0253 N.3     1  UNL1       -0.2727
     18 C          59.2422   86.6822    8.0310 C.3     1  UNL1        0.0722
     19 C          59.9765   87.1075    9.2680 C.3     1  UNL1        0.0210
     20 C          60.2788   86.0563    7.7181 C.3     1  UNL1        0.0722
     21 C          60.9427   86.4409    8.8366 C.3     1  UNL1        0.0210
@<TRIPOS>BOND
     1     1     2    2
     2     2    12    1
     3    12    13    1
     4    13    14    1
     5    14    15    1
     6    15    16    1
     7    16    17    1
     8    17    18    1
     9    18    19    1
    10    17    20    1
    11    20    21    1
    12     2     3    1
    13     3     4    2
    14     4     5    1
    15     5     6    2
    16     6     7    1
    17     7     8    1
    18     8     9    2
    19     9    10    1
    20    10    11    2
    21    19    14    1
    22    11     3    1
    23    21    14    1
    24    11     6    1
@<TRIPOS>MOLECULE
*****
 21 24 0 0 0
SMALL
GASTEIGER

@<TRIPOS>ATOM
      1 O          63.7050   82.6876   14.9562 O.2     1  UNL1       -0.2448
      2 C          63.5697   83.8551   14.0242 C.2     1  UNL1        0.3428
      3 C          63.7737   83.6657   12.5503 C.2     1  UNL1        0.0958
      4 C          64.5813   82.5791   11.9044 C.2     1  UNL1        0.1049
      5 N          64.5125   82.7716   10.4184 N.2     1  UNL1       -0.2476
      6 C          63.6625   83.9771   10.1459 C.2     1  UNL1        0.0636
      7 C          63.2454   84.6430    8.8682 C.3     1  UNL1        0.0717
      8 C          62.3716   85.8615    8.9082 C.2     1  UNL1       -0.0198
      9 C          61.9149   86.4141   10.2258 C.2     1  UNL1       -0.0041
     10 C          62.3321   85.7482   11.5035 C.2     1  UNL1        0.0011
     11 C          63.2059   84.5297   11.4635 C.2     1  UNL1        0.0216
     12 O          63.2305   85.2120   14.5663 O.3     1  UNL1       -0.4454
     13 C          64.3261   86.1722   14.9237 C.3     1  UNL1        0.2087
     14 C          64.0115   87.6232   15.1371 C.3     1  UNL1        0.0445
     15 C          64.2729   88.6161   14.0436 C.3     1  UNL1        0.0210
     16 C          63.9582   90.0671   14.2572 C.3     1  UNL1        0.0722
     17 N          63.3822   90.5253   15.5643 N.3     1  UNL1       -0.2727
     18 C          63.1208   89.5324   16.6578 C.3     1  UNL1        0.0722
     19 C          63.4355   88.0813   16.4442 C.3     1  UNL1        0.0210
     20 C          63.5384   89.7199   15.4938 C.3     1  UNL1        0.0722
     21 C          63.8228   88.4078   15.3008 C.3     1  UNL1        0.0210
@<TRIPOS>BOND
     1     1     2    2
     2     2    12    1
     3    12    13    1
     4    13    14    1
     5    14    15    1
     6    15    16    1
     7    16    17    1
     8    17    18    1
     9    18    19    1
    10    17    20    1
    11    20    21    1
    12     2     3    1
    13     3     4    2
    14     4     5    1
    15     5     6    2
    16     6     7    1
    17     7     8    1
    18     8     9    2
    19     9    10    1
    20    10    11    2
    21    19    14    1
    22    11     3    1
    23    21    14    1
    24    11     6    1
@<TRIPOS>MOLECULE
*****
 21 24 0 0 0
SMALL
GASTEIGER

@<TRIPOS>ATOM
      1 O          63.1750   88.2432   16.3415 O.2     1  UNL1       -0.2448
      2 C          64.0100   88.2196   15.0957 C.2     1  UNL1        0.3428
      3 C          64.1576   89.4618   14.2680 C.2     1  UNL1        0.0958
      4 C          64.8475   90.7253   14.6895 C.2     1  UNL1        0.1049
      5 N          64.7575   91.7030   13.5555 N.2     1  UNL1       -0.2476
      6 C          64.0119   91.0438   12.4332 C.2     1  UNL1        0.0636
      7 C          63.6228   91.5259   11.0671 C.3     1  UNL1        0.0717
      8 C          62.8628   90.6228   10.1415 C.2     1  UNL1       -0.0198
      9 C          62.4920   89.2377   10.5818 C.2     1  UNL1       -0.0041
     10 C          62.8812   88.7556   11.9479 C.2     1  UNL1        0.0011
     11 C          63.6412   89.6587   12.8735 C.2     1  UNL1        0.0216
     12 O          64.6974   86.9536   14.6775 O.3     1  UNL1       -0.4454
     13 C          63.9544   85.6509   14.7095 C.3     1  UNL1        0.2087
     14 C          63.7731   84.8598   13.4480 C.3     1  UNL1        0.0445
     15 C          62.7761   85.3056   12.4198 C.3     1  UNL1        0.0210
     16 C          62.5950   84.5144   11.1584 C.3     1  UNL1        0.0722
     17 N          63.4107   83.2774   10.9251 N.3     1  UNL1       -0.2727
     18 C          64.4077   82.8316   11.9533 C.3     1  UNL1        0.0722
     19 C          64.5889   83.6228   13.2148 C.3     1  UNL1        0.0210
     20 C          63.5452   83.6783   11.6317 C.3     1  UNL1        0.0722
     21 C          63.7091   84.3936   12.7723 C.3     1  UNL1        0.0210
@<TRIPOS>BOND
     1     1     2    2
     2     2    12    1
     3    12    13    1
     4    13    14    1
     5    14    15    1
     6    15    16    1
     7    16    17    1
     8    17    18    1
     9    18    19    1
    10    17    20    1
    11    20    21    1
    12     2     3    1
    13     3     4    2
    14     4     5    1
    15     5     6    2
    16     6     7    1
    17     7     8    1
    18     8     9    2
    19     9    10    1
    20    10    11    2
    21    19    14    1
    22    11     3    1
    23    21    14    1
    24    11     6    1
@<TRIPOS>MOLECULE
*****
 21 24 0 0 0
SMALL
GASTEIGER

@<TRIPOS>ATOM
      1 O          62.9511   84.6199   10.2389 O.2     1  UNL1       -0.2448
      2 C          62.4605   85.6616   11.2000 C.2     1  UNL1        0.3428
      3 C          61.9916   86.9919   10.6893 C.2     1  UNL1        0.0958
      4 C          62.4062   88.3341   11.2153 C.2     1  UNL1        0.1049
      5 N          61.6967   89.3851   10.4141 N.2     1  UNL1       -0.2476
      6 C          60.8437   88.6925    9.3929 C.2     1  UNL1        0.0636
      7 C          59.9245   89.2175    8.3302 C.3     1  UNL1        0.0717
      8 C          59.1877   88.2635    7.4376 C.2     1  UNL1       -0.0198
      9 C          59.3700   86.7843    7.6077 C.2     1  UNL1       -0.0041
     10 C          60.2891   86.2593    8.6705 C.2     1  UNL1        0.0011
     11 C          61.0260   87.2133    9.5631 C.2     1  UNL1        0.0216
     12 O          62.4386   85.3732   12.6719 O.3     1  UNL1       -0.4454
     13 C          63.3243   84.3041   13.2399 C.3     1  UNL1        0.2087
     14 C          62.8626   82.8771   13.2542 C.3     1  UNL1        0.0445
     15 C          63.3300   81.9269   12.1917 C.3     1  UNL1        0.0210
     16 C          62.8683   80.4998   12.2060 C.3     1  UNL1        0.0722
     17 N          61.9392   80.0228   13.2827 N.3     1  UNL1       -0.2727
     18 C          61.4718   80.9729   14.3451 C.3     1  UNL1        0.0722
     19 C          61.9335   82.4001   14.3309 C.3     1  UNL1        0.0210
     20 C          62.1651   80.8139   13.3164 C.3     1  UNL1        0.0722
     21 C          62.5825   82.1043   13.3036 C.3     1  UNL1        0.0210
@<TRIPOS>BOND
     1     1     2    2
     2     2    12    1
     3    12    13    1
     4    13    14    1
     5    14    15    1
     6    15    16    1
     7    16    17    1
     8    17    18    1
     9    18    19    1
    10    17    20    1
    11    20    21    1
    12     2     3    1
    13     3     4    2
    14     4     5    1
    15     5     6    2
    16     6     7    1
    17     7     8    1
    18     8     9    2
    19     9    10    1
    20    10    11    2
    21    19    14    1
    22    11     3    1
    23    21    14    1
    24    11     6    1
@<TRIPOS>MOLECULE
*****
 21 24 0 0 0
SMALL
GASTEIGER

@<TRIPOS>ATOM
      1 O          59.6661   88.2327   11.8162 O.2     1  UNL1       -0.2448
      2 C          60.1988   88.6231   10.4696 C.2     1  UNL1        0.3428
      3 C          60.0363   87.6965    9.3012 C.2     1  UNL1        0.0958
      4 C          58.8117   87.5632    8.4453 C.2     1  UNL1        0.1049
      5 N          59.0884   86.5249    7.3988 N.2     1  UNL1       -0.2476
      6 C          60.4841   86.0165    7.6079 C.2     1  UNL1        0.0636
      7 C          61.2972   84.9877    6.8795 C.3     1  UNL1        0.0717
      8 C          62.6961   84.6831    7.3270 C.2     1  UNL1       -0.0198
      9 C          63.2819   85.4073    8.5027 C.2     1  UNL1       -0.0041
     10 C          62.4688   86.4360    9.2311 C.2     1  UNL1        0.0011
     11 C          61.0699   86.7406    8.7836 C.2     1  UNL1        0.0216
     12 O          60.8941   89.9403   10.2912 O.3     1  UNL1       -0.4454
     13 C          62.3905   90.0143   10.3634 C.3     1  UNL1        0.2087
     14 C          63.0836   89.9061   11.6893 C.3     1  UNL1        0.0445
     15 C          63.6315   91.1353   12.3517 C.3     1  UNL1        0.0210
     16 C          64.3245   91.0271   13.6776 C.3     1  UNL1        0.0722
     17 N          64.4696   89.6896   14.3412 N.3     1  UNL1       -0.2727
     18 C          63.9217   88.4604   13.6788 C.3     1  UNL1        0.0722
     19 C          63.2286   88.5687   12.3528 C.3     1  UNL1        0.0210
     20 C          64.0821   89.6992   13.6147 C.3     1  UNL1        0.0722
     21 C          63.4554   89.7969   12.4158 C.3     1  UNL1        0.0210
@<TRIPOS>BOND
     1     1     2    2
     2     2    12    1
     3    12    13    1
     4    13    14    1
     5    14    15    1
     6    15    16    1
     7    16    17    1
     8    17    18    1
     9    18    19    1
    10    17    20    1
    11    20    21    1
    12     2     3    1
    13     3     4    2
    14     4     5    1
    15     5     6    2
    16     6     7    1
    17     7     8    1
    18     8     9    2
    19     9    10    1
    20    10    11    2
    21    19    14    1
    22    11     3    1
    23    21    14    1
    24    11     6    1
@<TRIPOS>MOLECULE
*****
 21 24 0 0 0
SMALL
GASTEIGER

@<TRIPOS>ATOM
      1 O          63.5141   88.0900   12.8364 O.2     1  UNL1       -0.2448
      2 C          63.2172   89.5408   12.5981 C.2     1  UNL1        0.3428
      3 C          64.0950   90.5955   13.2042 C.2     1  UNL1        0.0958
      4 C          64.4444   90.7236   14.6572 C.2     1  UNL1        0.1049
      5 N          65.3428   91.9144   14.8146 N.2     1  UNL1       -0.2476
      6 C          65.5486   92.5223   13.4588 C.2     1  UNL1        0.0636
      7 C          66.3385   93.7128   13.0020 C.3     1  UNL1        0.0717
      8 C          66.3573   94.0880   11.5499 C.2     1  UNL1       -0.0198
      9 C          65.5861   93.2728   10.5545 C.2     1  UNL1       -0.0041
     10 C          64.7961   92.0824   11.0113 C.2     1  UNL1        0.0011
     11 C          64.7774   91.7071   12.4635 C.2     1  UNL1        0.0216
     12 O          62.0425   89.9371   11.7536 O.3     1  UNL1       -0.4454
     13 C          62.1033   89.7800   10.2631 C.3     1  UNL1        0.2087
     14 C          61.4288   88.6136    9.6038 C.3     1  UNL1        0.0445
     15 C          62.0447   87.2482    9.6827 C.3     1  UNL1        0.0210
     16 C          61.3702   86.0819    9.0234 C.3     1  UNL1        0.0722
     17 N          60.0796   86.2810    8.2851 N.3     1  UNL1       -0.2727
     18 C          59.4637   87.6464    8.2062 C.3     1  UNL1        0.0722
     19 C          60.1383   88.8128    8.8655 C.3     1  UNL1        0.0210
     20 C          60.4123   86.9504    8.6305 C.3     1  UNL1        0.0722
     21 C          61.0222   88.0050    9.2267 C.3     1  UNL1        0.0210
@<TRIPOS>BOND
     1     1     2    2
     2     2    12    1
     3    12    13    1
     4    13    14    1
     5    14    15    1
     6    15    16    1
     7    16    17    1
     8    17    18    1
     9    18    19    1
    10    17    20    1
    11    20    21    1
    12     2     3    1
    13     3     4    2
    14     4     5    1
    15     5     6    2
    16     6     7    1
    17     7     8    1
    18     8     9    2
    19     9    10    1
    20    10    11    2
    21    19    14    1
    22    11     3    1
    23    21    14    1
    24    11     6    1
@<TRIPOS>MOLECULE
*****
 21 24 0 0 0
SMALL
GASTEIGER

@<TRIPOS>ATOM
      1 O          60.5984   87.2056   11.6211 O.2     1  UNL1       -0.2448
      2 C          61.3390   87.2516   10.3176 C.2     1  UNL1        0.3428
      3 C          62.1653   86.0777    9.8825 C.2     1  UNL1        0.0958
      4 C          62.5560   85.7487    8.4721 C.2     1  UNL1        0.1049
      5 N          63.3781   84.4944    8.4995 N.2     1  UNL1       -0.2476
      6 C          63.4955   84.0481    9.9268 C.2     1  UNL1        0.0636
      7 C          64.1881   82.8771   10.5585 C.3     1  UNL1        0.0717
      8 C          64.1311   82.6847   12.0450 C.2     1  UNL1       -0.0198
      9 C          63.3815   83.6633   12.8997 C.2     1  UNL1       -0.0041
     10 C          62.6890   84.8342   12.2680 C.2     1  UNL1        0.0011
     11 C          62.7459   85.0267   10.7815 C.2     1  UNL1        0.0216
     12 O          61.2534   88.4716    9.4489 O.3     1  UNL1       -0.4454
     13 C          61.1420   89.8307   10.0737 C.3     1  UNL1        0.2087
     14 C          62.3066   90.4107   10.8202 C.3     1  UNL1        0.0445
     15 C          63.2356   91.3680   10.1343 C.3     1  UNL1        0.0210
     16 C          64.4002   91.9479   10.8809 C.3     1  UNL1        0.0722
     17 N          64.6358   91.5705   12.3135 N.3     1  UNL1       -0.2727
     18 C          63.7068   90.6132   12.9994 C.3     1  UNL1        0.0722
     19 C          62.5421   90.0332   12.2527 C.3     1  UNL1        0.0210
     20 C          63.9842   91.2269   11.9455 C.3     1  UNL1        0.0722
     21 C          62.9312   90.7024   11.2705 C.3     1  UNL1        0.0210
@<TRIPOS>BOND
     1     1     2    2
     2     2    12    1
     3    12    13    1
     4    13    14    1
     5    14    15    1
     6    15    16    1
     7    16    17    1
     8    17    18    1
     9    18    19    1
    10    17    20    1
    11    20    21    1
    12     2     3    1
    13     3     4    2
    14     4     5    1
    15     5     6    2
    16     6     7    1
    17     7     8    1
    18     8     9    2
    19     9    10    1
    20    10    11    2
    21    19    14    1
    22    11     3    1
    23    21    14    1
    24    11     6    1
@<TRIPOS>MOLECULE
*****
 21 24 0 0 0
SMALL
GASTEIGER

@<TRIPOS>ATOM
      1 O          62.7925   88.2072   12.2629 O.2     1  UNL1       -0.2448
      2 C          62.3784   89.5118   11.6493 C.2     1  UNL1        0.3428
      3 C          63.3625   90.6394   11.5490 C.2     1  UNL1        0.0958
      4 C          63.6187   91.4806   10.3338 C.2     1  UNL1        0.1049
      5 N          64.6777   92.4848   10.6801 N.2     1  UNL1       -0.2476
      6 C          65.0761   92.2642   12.1093 C.2     1  UNL1        0.0636
      7 C          66.0740   92.9546   12.9911 C.3     1  UNL1        0.0717
      8 C          66.2591   92.5043   14.4099 C.2     1  UNL1       -0.0198
      9 C          65.4463   91.3638   14.9469 C.2     1  UNL1       -0.0041
     10 C          64.4484   90.6734   14.0651 C.2     1  UNL1        0.0011
     11 C          64.2633   91.1236   12.6464 C.2     1  UNL1        0.0216
     12 O          60.9801   89.6888   11.1360 O.3     1  UNL1       -0.4454
     13 C          60.7134   89.6583    9.6602 C.3     1  UNL1        0.2087
     14 C          60.4940   88.3476    8.9647 C.3     1  UNL1        0.0445
     15 C          61.5445   87.2789    9.0298 C.3     1  UNL1        0.0210
     16 C          61.3251   85.9682    8.3342 C.3     1  UNL1        0.0722
     17 N          60.0551   85.7261    7.5736 N.3     1  UNL1       -0.2727
     18 C          59.0046   86.7948    7.5085 C.3     1  UNL1        0.0722
     19 C          59.2240   88.1056    8.2041 C.3     1  UNL1        0.0210
     20 C          60.1303   86.4603    7.9387 C.3     1  UNL1        0.0722
     21 C          60.3287   87.6455    8.5676 C.3     1  UNL1        0.0210
@<TRIPOS>BOND
     1     1     2    2
     2     2    12    1
     3    12    13    1
     4    13    14    1
     5    14    15    1
     6    15    16    1
     7    16    17    1
     8    17    18    1
     9    18    19    1
    10    17    20    1
    11    20    21    1
    12     2     3    1
    13     3     4    2
    14     4     5    1
    15     5     6    2
    16     6     7    1
    17     7     8    1
    18     8     9    2
    19     9    10    1
    20    10    11    2
    21    19    14    1
    22    11     3    1
    23    21    14    1
    24    11     6    1
@<TRIPOS>MOLECULE
*****
 21 24 0 0 0
SMALL
GASTEIGER

@<TRIPOS>ATOM
      1 O          63.0631   87.6878   12.0348 O.2     1  UNL1       -0.2448
      2 C          62.3331   88.6253   11.1194 C.2     1  UNL1        0.3428
      3 C          61.3931   88.0827   10.0842 C.2     1  UNL1        0.0958
      4 C          59.9982   88.5668    9.8195 C.2     1  UNL1        0.1049
      5 N          59.4259   87.7440    8.7036 N.2     1  UNL1       -0.2476
      6 C          60.4671   86.7513    8.2785 C.2     1  UNL1        0.0636
      7 C          60.4651   85.6838    7.2248 C.3     1  UNL1        0.0717
      8 C          61.6789   84.8256    7.0243 C.2     1  UNL1       -0.0198
      9 C          62.8947   85.0350    7.8776 C.2     1  UNL1       -0.0041
     10 C          62.8966   86.1025    8.9313 C.2     1  UNL1        0.0011
     11 C          61.6828   86.9606    9.1318 C.2     1  UNL1        0.0216
     12 O          62.5433   90.1058   11.2393 O.3     1  UNL1       -0.4454
     13 C          63.3219   90.6616   12.3947 C.3     1  UNL1        0.2087
     14 C          64.4841   91.5765   12.1450 C.3     1  UNL1        0.0445
     15 C          65.4623   91.8638   13.2452 C.3     1  UNL1        0.0210
     16 C          66.6245   92.7786   12.9954 C.3     1  UNL1        0.0722
     17 N          66.8085   93.4062   11.6454 N.3     1  UNL1       -0.2727
     18 C          65.8302   93.1189   10.5453 C.3     1  UNL1        0.0722
     19 C          64.6679   92.2040   10.7950 C.3     1  UNL1        0.0210
     20 C          66.1563   92.9115   11.7348 C.3     1  UNL1        0.0722
     21 C          65.1054   92.0843   11.9605 C.3     1  UNL1        0.0210
@<TRIPOS>BOND
     1     1     2    2
     2     2    12    1
     3    12    13    1
     4    13    14    1
     5    14    15    1
     6    15    16    1
     7    16    17    1
     8    17    18    1
     9    18    19    1
    10    17    20    1
    11    20    21    1
    12     2     3    1
    13     3     4    2
    14     4     5    1
    15     5     6    2
    16     6     7    1
    17     7     8    1
    18     8     9    2
    19     9    10    1
    20    10    11    2
    21    19    14    1
    22    11     3    1
    23    21    14    1
    24    11     6    1
