@<TRIPOS>MOLECULE
*****
 16 16 0 0 0
SMALL
GASTEIGER

@<TRIPOS>ATOM
      1 C          62.7253   83.7740   12.3284 C.ar    1  UNL1       -0.0045
      2 C          63.0160   82.6698   11.3557 C.ar    1  UNL1       -0.0028
      3 C          63.0155   81.2430   11.8187 C.ar    1  UNL1       -0.0002
      4 C          62.7243   80.9204   13.2543 C.ar    1  UNL1        0.0015
      5 C          62.4336   82.0246   14.2270 C.ar    1  UNL1        0.0188
      6 C          62.4341   83.4514   13.7640 C.ar    1  UNL1        0.0791
      7 N          62.1434   84.5557   14.7368 N.2     1  UNL1       -0.2245
      8 C          63.1909   84.9824   15.7220 C.2     1  UNL1        0.1958
      9 N          62.9002   86.0866   16.6948 N.3     1  UNL1       -0.2481
     10 O          61.5097   86.2715   17.2259 O.3     1  UNL1       -0.2879
     11 H          63.6221   86.6900   16.9846 H       1  UNL1        0.1956
     12 H          60.9251   85.5990   16.8425 H       1  UNL1        0.2442
     13 C          62.7258   85.2007   11.8654 C.3     1  UNL1        0.0279
     14 C          61.7473   85.6508   10.8215 C.3     1  UNL1        0.0047
     15 C          62.9932   85.3126    8.5668 C.3     1  UNL1        0.0000
     16 C          62.2426   86.1990    9.5160 C.3     1  UNL1        0.0003
@<TRIPOS>BOND
     1    15    16    1
     2    16    14    1
     3    14    13    1
     4    13     1    1
     5     1     2   ar
     6     2     3   ar
     7     3     4   ar
     8     4     5   ar
     9     5     6   ar
    10     6     7    1
    11     7     8    2
    12     8     9    1
    13     9    10    1
    14     6     1   ar
    15     9    11    1
    16    10    12    1
@<TRIPOS>MOLECULE
*****
 16 16 0 0 0
SMALL
GASTEIGER

@<TRIPOS>ATOM
      1 C          62.6913   84.6424   11.2377 C.ar    1  UNL1       -0.0045
      2 C          63.5132   83.7957   10.3117 C.ar    1  UNL1       -0.0028
      3 C          63.6508   84.1794    8.8681 C.ar    1  UNL1       -0.0002
      4 C          62.9665   85.4097    8.3505 C.ar    1  UNL1        0.0015
      5 C          62.1446   86.2564    9.2765 C.ar    1  UNL1        0.0188
      6 C          62.0070   85.8728   10.7201 C.ar    1  UNL1        0.0791
      7 N          61.1851   86.7196   11.6461 N.2     1  UNL1       -0.2245
      8 C          60.2858   87.7835   11.0900 C.2     1  UNL1        0.1958
      9 N          59.4638   88.6302   12.0160 N.3     1  UNL1       -0.2481
     10 O          60.1279   89.6688   12.8706 O.3     1  UNL1       -0.2879
     11 H          58.4885   88.5043   12.0629 H       1  UNL1        0.1956
     12 H          61.0834   89.6622   12.7037 H       1  UNL1        0.2442
     13 C          62.5538   84.2588   12.6812 C.3     1  UNL1        0.0279
     14 C          63.0943   82.9452   13.1630 C.3     1  UNL1        0.0047
     15 C          61.4113   81.2266   14.1448 C.3     1  UNL1        0.0000
     16 C          62.2760   81.6970   13.0129 C.3     1  UNL1        0.0003
@<TRIPOS>BOND
     1    15    16    1
     2    16    14    1
     3    14    13    1
     4    13     1    1
     5     1     2   ar
     6     2     3   ar
     7     3     4   ar
     8     4     5   ar
     9     5     6   ar
    10     6     7    1
    11     7     8    2
    12     8     9    1
    13     9    10    1
    14     6     1   ar
    15     9    11    1
    16    10    12    1
@<TRIPOS>MOLECULE
*****
 16 16 0 0 0
SMALL
GASTEIGER

@<TRIPOS>ATOM
      1 C          63.2895   83.9777   10.8543 C.ar    1  UNL1       -0.0045
      2 C          63.4200   84.1504    9.3700 C.ar    1  UNL1       -0.0028
      3 C          62.8941   85.3905    8.7101 C.ar    1  UNL1       -0.0002
      4 C          62.2376   86.4579    9.5344 C.ar    1  UNL1        0.0015
      5 C          62.1071   86.2853   11.0187 C.ar    1  UNL1        0.0188
      6 C          62.6330   85.0452   11.6786 C.ar    1  UNL1        0.0791
      7 N          62.5025   84.8726   13.1630 N.2     1  UNL1       -0.2245
      8 C          63.6482   85.2290   14.0631 C.2     1  UNL1        0.1958
      9 N          63.5176   85.0564   15.5475 N.3     1  UNL1       -0.2481
     10 O          62.1796   85.2162   16.2063 O.3     1  UNL1       -0.2879
     11 H          64.3102   84.8383   16.0893 H       1  UNL1        0.1956
     12 H          61.5121   85.4284   15.5353 H       1  UNL1        0.2442
     13 C          63.8154   82.7376   11.5143 C.3     1  UNL1        0.0279
     14 C          62.9849   81.4887   11.5339 C.3     1  UNL1        0.0047
     15 C          61.7509   81.3747   13.8174 C.3     1  UNL1        0.0000
     16 C          62.7170   80.7865   12.8320 C.3     1  UNL1        0.0003
@<TRIPOS>BOND
     1    15    16    1
     2    16    14    1
     3    14    13    1
     4    13     1    1
     5     1     2   ar
     6     2     3   ar
     7     3     4   ar
     8     4     5   ar
     9     5     6   ar
    10     6     7    1
    11     7     8    2
    12     8     9    1
    13     9    10    1
    14     6     1   ar
    15     9    11    1
    16    10    12    1
@<TRIPOS>MOLECULE
*****
 16 16 0 0 0
SMALL
GASTEIGER

@<TRIPOS>ATOM
      1 C          62.8429   84.8470   11.4796 C.ar    1  UNL1       -0.0045
      2 C          63.2090   83.9572   10.3288 C.ar    1  UNL1       -0.0028
      3 C          64.0808   82.7579   10.5559 C.ar    1  UNL1       -0.0002
      4 C          64.5866   82.4484   11.9336 C.ar    1  UNL1        0.0015
      5 C          64.2205   83.3381   13.0844 C.ar    1  UNL1        0.0188
      6 C          63.3487   84.5374   12.8573 C.ar    1  UNL1        0.0791
      7 N          62.9827   85.4272   14.0082 N.2     1  UNL1       -0.2245
      8 C          63.1838   84.9525   15.4168 C.2     1  UNL1        0.1958
      9 N          62.8177   85.8423   16.5676 N.3     1  UNL1       -0.2481
     10 O          61.3784   86.0180   16.9515 O.3     1  UNL1       -0.2879
     11 H          63.5222   86.3110   17.0709 H       1  UNL1        0.1956
     12 H          60.8192   85.4913   16.3593 H       1  UNL1        0.2442
     13 C          61.9711   86.0463   11.2525 C.3     1  UNL1        0.0279
     14 C          61.8577   86.6422    9.8807 C.3     1  UNL1        0.0047
     15 C          59.6190   87.2600    8.7159 C.3     1  UNL1        0.0000
     16 C          60.7086   86.2668    8.9926 C.3     1  UNL1        0.0003
@<TRIPOS>BOND
     1    15    16    1
     2    16    14    1
     3    14    13    1
     4    13     1    1
     5     1     2   ar
     6     2     3   ar
     7     3     4   ar
     8     4     5   ar
     9     5     6   ar
    10     6     7    1
    11     7     8    2
    12     8     9    1
    13     9    10    1
    14     6     1   ar
    15     9    11    1
    16    10    12    1
@<TRIPOS>MOLECULE
*****
 16 16 0 0 0
SMALL
GASTEIGER

@<TRIPOS>ATOM
      1 C          64.9834   92.2525   11.2023 C.ar    1  UNL1       -0.0045
      2 C          63.8429   91.6493   10.4371 C.ar    1  UNL1       -0.0028
      3 C          62.9028   90.6989   11.1174 C.ar    1  UNL1       -0.0002
      4 C          63.1030   90.3517   12.5629 C.ar    1  UNL1        0.0015
      5 C          64.2434   90.9550   13.3280 C.ar    1  UNL1        0.0188
      6 C          65.1836   91.9054   12.6477 C.ar    1  UNL1        0.0791
      7 N          66.3241   92.5087   13.4129 N.2     1  UNL1       -0.2245
      8 C          67.6164   91.7593   13.5478 C.2     1  UNL1        0.1958
      9 N          68.7569   92.3626   14.3130 N.3     1  UNL1       -0.2481
     10 O          70.1587   92.2345   13.7950 O.3     1  UNL1       -0.2879
     11 H          68.5853   92.8426   15.1553 H       1  UNL1        0.1956
     12 H          70.1515   91.7371   12.9622 H       1  UNL1        0.2442
     13 C          65.9235   93.2029   10.5220 C.3     1  UNL1        0.0279
     14 C          67.2390   92.7094    9.9968 C.3     1  UNL1        0.0047
     15 C          67.6578   95.0164    8.8777 C.3     1  UNL1        0.0000
     16 C          68.1081   93.6175    9.1782 C.3     1  UNL1        0.0003
@<TRIPOS>BOND
     1    15    16    1
     2    16    14    1
     3    14    13    1
     4    13     1    1
     5     1     2   ar
     6     2     3   ar
     7     3     4   ar
     8     4     5   ar
     9     5     6   ar
    10     6     7    1
    11     7     8    2
    12     8     9    1
    13     9    10    1
    14     6     1   ar
    15     9    11    1
    16    10    12    1
@<TRIPOS>MOLECULE
*****
 16 16 0 0 0
SMALL
GASTEIGER

@<TRIPOS>ATOM
      1 C          61.3643   86.7888    9.1602 C.ar    1  UNL1       -0.0045
      2 C          60.4763   86.0764    8.1837 C.ar    1  UNL1       -0.0028
      3 C          59.3917   86.8276    7.4699 C.ar    1  UNL1       -0.0002
      4 C          59.1953   88.2912    7.7327 C.ar    1  UNL1        0.0015
      5 C          60.0833   89.0036    8.7092 C.ar    1  UNL1        0.0188
      6 C          61.1679   88.2524    9.4230 C.ar    1  UNL1        0.0791
      7 N          62.0559   88.9650   10.3996 N.2     1  UNL1       -0.2245
      8 C          61.4555   89.7019   11.5599 C.2     1  UNL1        0.1958
      9 N          62.3436   90.4144   12.5366 N.3     1  UNL1       -0.2481
     10 O          62.3268   90.0280   13.9858 O.3     1  UNL1       -0.2879
     11 H          62.9375   91.1357   12.2263 H       1  UNL1        0.1956
     12 H          61.6920   89.3070   14.1208 H       1  UNL1        0.2442
     13 C          62.4489   86.0376    9.8740 C.3     1  UNL1        0.0279
     14 C          62.1054   85.1335   11.0206 C.3     1  UNL1        0.0047
     15 C          63.8851   83.3622   10.3534 C.3     1  UNL1        0.0000
     16 C          63.0332   84.0176   11.3998 C.3     1  UNL1        0.0003
@<TRIPOS>BOND
     1    15    16    1
     2    16    14    1
     3    14    13    1
     4    13     1    1
     5     1     2   ar
     6     2     3   ar
     7     3     4   ar
     8     4     5   ar
     9     5     6   ar
    10     6     7    1
    11     7     8    2
    12     8     9    1
    13     9    10    1
    14     6     1   ar
    15     9    11    1
    16    10    12    1
@<TRIPOS>MOLECULE
*****
 16 16 0 0 0
SMALL
GASTEIGER

@<TRIPOS>ATOM
      1 C          62.6380   85.0457   11.2574 C.ar    1  UNL1       -0.0045
      2 C          63.0933   84.4324    9.9665 C.ar    1  UNL1       -0.0028
      3 C          64.0294   83.2604    9.9821 C.ar    1  UNL1       -0.0002
      4 C          64.5102   82.7018   11.2885 C.ar    1  UNL1        0.0015
      5 C          64.0548   83.3152   12.5794 C.ar    1  UNL1        0.0188
      6 C          63.1187   84.4871   12.5638 C.ar    1  UNL1        0.0791
      7 N          62.6634   85.1005   13.8548 N.2     1  UNL1       -0.2245
      8 C          63.6322   85.2702   14.9873 C.2     1  UNL1        0.1958
      9 N          63.1768   85.8836   16.2783 N.3     1  UNL1       -0.2481
     10 O          63.2160   87.3724   16.4562 O.3     1  UNL1       -0.2879
     11 H          62.8523   85.3089   17.0088 H       1  UNL1        0.1956
     12 H          63.5588   87.7857   15.6484 H       1  UNL1        0.2442
     13 C          61.7018   86.2177   11.2419 C.3     1  UNL1        0.0279
     14 C          61.7484   87.1998   10.1091 C.3     1  UNL1        0.0047
     15 C          62.7684   88.9860   11.6963 C.3     1  UNL1        0.0000
     16 C          62.2403   88.5967   10.3474 C.3     1  UNL1        0.0003
@<TRIPOS>BOND
     1    15    16    1
     2    16    14    1
     3    14    13    1
     4    13     1    1
     5     1     2   ar
     6     2     3   ar
     7     3     4   ar
     8     4     5   ar
     9     5     6   ar
    10     6     7    1
    11     7     8    2
    12     8     9    1
    13     9    10    1
    14     6     1   ar
    15     9    11    1
    16    10    12    1
@<TRIPOS>MOLECULE
*****
 16 16 0 0 0
SMALL
GASTEIGER

@<TRIPOS>ATOM
      1 C          64.4368   90.0472   14.1120 C.ar    1  UNL1       -0.0045
      2 C          65.6109   90.9508   14.3464 C.ar    1  UNL1       -0.0028
      3 C          65.9346   92.0316   13.3579 C.ar    1  UNL1       -0.0002
      4 C          65.0843   92.2087   12.1350 C.ar    1  UNL1        0.0015
      5 C          63.9102   91.3051   11.9006 C.ar    1  UNL1        0.0188
      6 C          63.5865   90.2243   12.8891 C.ar    1  UNL1        0.0791
      7 N          62.4123   89.3207   12.6547 N.2     1  UNL1       -0.2245
      8 C          62.4006   88.3976   11.4724 C.2     1  UNL1        0.1958
      9 N          61.2265   87.4939   11.2380 N.3     1  UNL1       -0.2481
     10 O          59.8472   87.9415   11.6217 O.3     1  UNL1       -0.2879
     11 H          61.3612   86.6070   10.8323 H       1  UNL1        0.1956
     12 H          59.8910   88.8317   12.0044 H       1  UNL1        0.2442
     13 C          64.1131   88.9664   15.1005 C.3     1  UNL1        0.0279
     14 C          63.1159   89.2221   16.1915 C.3     1  UNL1        0.0047
     15 C          62.8525   86.8400   17.1948 C.3     1  UNL1        0.0000
     16 C          63.0593   88.3137   17.3838 C.3     1  UNL1        0.0003
@<TRIPOS>BOND
     1    15    16    1
     2    16    14    1
     3    14    13    1
     4    13     1    1
     5     1     2   ar
     6     2     3   ar
     7     3     4   ar
     8     4     5   ar
     9     5     6   ar
    10     6     7    1
    11     7     8    2
    12     8     9    1
    13     9    10    1
    14     6     1   ar
    15     9    11    1
    16    10    12    1
@<TRIPOS>MOLECULE
*****
 16 16 0 0 0
SMALL
GASTEIGER

@<TRIPOS>ATOM
      1 C          62.8800   84.9830   10.0704 C.ar    1  UNL1       -0.0045
      2 C          63.7580   83.7669   10.0735 C.ar    1  UNL1       -0.0028
      3 C          64.0996   83.0917   11.3686 C.ar    1  UNL1       -0.0002
      4 C          63.5632   83.6326   12.6607 C.ar    1  UNL1        0.0015
      5 C          62.6853   84.8488   12.6577 C.ar    1  UNL1        0.0188
      6 C          62.3437   85.5240   11.3626 C.ar    1  UNL1        0.0791
      7 N          61.4656   86.7402   11.3596 N.2     1  UNL1       -0.2245
      8 C          62.0731   88.1034   11.2091 C.2     1  UNL1        0.1958
      9 N          61.1950   89.3196   11.2061 N.3     1  UNL1       -0.2481
     10 O          61.0278   90.1208    9.9491 O.3     1  UNL1       -0.2879
     11 H          60.7285   89.5920   12.0291 H       1  UNL1        0.1956
     12 H          61.5510   89.7194    9.2378 H       1  UNL1        0.2442
     13 C          62.5384   85.6582    8.7753 C.3     1  UNL1        0.0279
     14 C          62.7929   84.9570    7.4740 C.3     1  UNL1        0.0047
     15 C          61.9388   84.1825    5.1457 C.3     1  UNL1        0.0000
     16 C          61.6598   84.7039    6.5243 C.3     1  UNL1        0.0003
@<TRIPOS>BOND
     1    15    16    1
     2    16    14    1
     3    14    13    1
     4    13     1    1
     5     1     2   ar
     6     2     3   ar
     7     3     4   ar
     8     4     5   ar
     9     5     6   ar
    10     6     7    1
    11     7     8    2
    12     8     9    1
    13     9    10    1
    14     6     1   ar
    15     9    11    1
    16    10    12    1
