@<TRIPOS>MOLECULE
*****
 30 32 0 0 0
SMALL
GASTEIGER

@<TRIPOS>ATOM
      1 C          63.7356   89.8835   13.0192 C.ar    1  UNL1        0.1730
      2 C          64.4687   91.1894   12.9345 C.ar    1  UNL1        0.0401
      3 C          64.4471   91.9804   11.6602 C.ar    1  UNL1        0.0039
      4 C          63.6924   91.4655   10.4706 C.ar    1  UNL1        0.0034
      5 C          62.9593   90.1596   10.5553 C.ar    1  UNL1        0.0406
      6 C          62.9809   89.3686   11.8296 C.ar    1  UNL1        0.1789
      7 C          65.1803   93.2863   11.5756 C.2     1  UNL1        0.0113
      8 C          66.3880   93.4127   10.6951 C.2     1  UNL1        0.0873
      9 S          66.9772   92.3260    9.8453 S.3     1  UNL1       -0.0254
     10 C          68.1720   92.8896    9.1348 C.2     1  UNL1        0.2832
     11 O          69.0614   92.1483    8.1811 O.2     1  UNL1       -0.2622
     12 N          68.3213   94.3246    9.5454 N.am    1  UNL1       -0.2425
     13 C          67.2187   94.6478   10.5097 C.2     1  UNL1        0.2583
     14 O          66.9875   95.9735   11.1723 O.2     1  UNL1       -0.2692
     15 H          69.0202   94.9452    9.2363 H       1  UNL1        0.1587
     16 C          63.4507   89.7649   15.5989 C.3     1  UNL1        0.2526
     17 O          63.7572   89.0926   14.2935 O.3     1  UNL1       -0.4684
     18 O          62.2478   88.0627   11.9142 O.3     1  UNL1       -0.4505
     19 C          61.9972   87.2613   10.6713 C.ar    1  UNL1        0.1493
     20 C          62.8481   86.0642   10.3665 C.ar    1  UNL1        0.0381
     21 C          62.5975   85.2628    9.1235 C.ar    1  UNL1        0.0134
     22 C          61.4961   85.6585    8.1853 C.ar    1  UNL1        0.0686
     23 C          60.6453   86.8557    8.4901 C.ar    1  UNL1        0.0172
     24 C          60.8958   87.6570    9.7330 C.ar    1  UNL1        0.1065
     25 C          60.0449   88.8542   10.0378 C.3     1  UNL1        0.4214
     26 F          59.1940   90.0513   10.3425 F       1  UNL1       -0.1657
     27 F          60.5097   89.5073    8.7700 F       1  UNL1       -0.1657
     28 F          59.5801   88.2010   11.3056 F       1  UNL1       -0.1657
     29 C          61.2456   84.8571    6.9424 C.1     1  UNL1        0.1004
     30 N          60.9951   84.0557    5.6994 N.1     1  UNL1       -0.1908
@<TRIPOS>BOND
     1    16    17    1
     2    17     1    1
     3     1     2   ar
     4     2     3   ar
     5     3     7    1
     6     7     8    2
     7     8     9    1
     8     9    10    1
     9    10    11    2
    10    10    12   am
    11    12    13   am
    12    13    14    2
    13     3     4   ar
    14     4     5   ar
    15     5     6   ar
    16     6    18    1
    17    18    19    1
    18    19    20   ar
    19    20    21   ar
    20    21    22   ar
    21    22    29    1
    22    29    30    3
    23    22    23   ar
    24    23    24   ar
    25    24    25    1
    26    25    26    1
    27    25    27    1
    28    25    28    1
    29     6     1   ar
    30    24    19   ar
    31    13     8    1
    32    12    15    1
@<TRIPOS>MOLECULE
*****
 30 32 0 0 0
SMALL
GASTEIGER

@<TRIPOS>ATOM
      1 C          62.5087   89.4561   10.8504 C.ar    1  UNL1        0.1730
      2 C          63.1656   90.7100   11.3463 C.ar    1  UNL1        0.0401
      3 C          63.9981   90.6778   12.5937 C.ar    1  UNL1        0.0039
      4 C          64.1737   89.3916   13.3451 C.ar    1  UNL1        0.0034
      5 C          63.5167   88.1376   12.8493 C.ar    1  UNL1        0.0406
      6 C          62.6842   88.1699   11.6019 C.ar    1  UNL1        0.1789
      7 C          64.6551   91.9318   13.0895 C.2     1  UNL1        0.0113
      8 C          65.5459   92.7227   12.1779 C.2     1  UNL1        0.0873
      9 S          65.8719   92.3856   10.7532 S.3     1  UNL1       -0.0254
     10 C          66.7946   93.4441   10.2257 C.2     1  UNL1        0.2832
     11 O          67.3716   93.5011    8.8423 O.2     1  UNL1       -0.2622
     12 N          67.0388   94.4355   11.3246 N.am    1  UNL1       -0.2425
     13 C          66.2671   93.9896   12.5311 C.2     1  UNL1        0.2583
     14 O          66.2242   94.6882   13.8578 O.2     1  UNL1       -0.2692
     15 H          67.6061   95.2379   11.2644 H       1  UNL1        0.1587
     16 C          60.1794   89.4995    9.7004 C.3     1  UNL1        0.2526
     17 O          61.6762   89.4883    9.6031 O.3     1  UNL1       -0.4684
     18 O          62.0273   86.9158   11.1060 O.3     1  UNL1       -0.4505
     19 C          62.3800   85.5922   11.7172 C.ar    1  UNL1        0.1493
     20 C          62.2367   85.3870   13.1962 C.ar    1  UNL1        0.0381
     21 C          62.5895   84.0633   13.8074 C.ar    1  UNL1        0.0134
     22 C          63.0856   82.9449   12.9396 C.ar    1  UNL1        0.0686
     23 C          63.2290   83.1502   11.4607 C.ar    1  UNL1        0.0172
     24 C          62.8762   84.4737   10.8495 C.ar    1  UNL1        0.1065
     25 C          63.0196   84.6790    9.3705 C.3     1  UNL1        0.4214
     26 F          63.1630   84.8842    7.8915 F       1  UNL1       -0.1657
     27 F          61.7351   85.4535    9.3534 F       1  UNL1       -0.1657
     28 F          64.3041   83.9045    9.3876 F       1  UNL1       -0.1657
     29 C          63.4384   81.6213   13.5508 C.1     1  UNL1        0.1004
     30 N          63.7911   80.2977   14.1621 N.1     1  UNL1       -0.1908
@<TRIPOS>BOND
     1    16    17    1
     2    17     1    1
     3     1     2   ar
     4     2     3   ar
     5     3     7    1
     6     7     8    2
     7     8     9    1
     8     9    10    1
     9    10    11    2
    10    10    12   am
    11    12    13   am
    12    13    14    2
    13     3     4   ar
    14     4     5   ar
    15     5     6   ar
    16     6    18    1
    17    18    19    1
    18    19    20   ar
    19    20    21   ar
    20    21    22   ar
    21    22    29    1
    22    29    30    3
    23    22    23   ar
    24    23    24   ar
    25    24    25    1
    26    25    26    1
    27    25    27    1
    28    25    28    1
    29     6     1   ar
    30    24    19   ar
    31    13     8    1
    32    12    15    1
@<TRIPOS>MOLECULE
*****
 30 32 0 0 0
SMALL
GASTEIGER

@<TRIPOS>ATOM
      1 C          63.0412   89.1064   12.1715 C.ar    1  UNL1        0.1730
      2 C          63.7244   90.1600   12.9919 C.ar    1  UNL1        0.0401
      3 C          64.5140   89.7702   14.2062 C.ar    1  UNL1        0.0039
      4 C          64.6205   88.3268   14.6000 C.ar    1  UNL1        0.0034
      5 C          63.9374   87.2732   13.7796 C.ar    1  UNL1        0.0406
      6 C          63.1478   87.6630   12.5653 C.ar    1  UNL1        0.1789
      7 C          65.1972   90.8239   15.0267 C.2     1  UNL1        0.0113
      8 C          65.8145   92.0145   14.3548 C.2     1  UNL1        0.0873
      9 S          65.8276   92.2861   12.8796 S.3     1  UNL1       -0.0254
     10 C          66.5483   93.5820   12.6532 C.2     1  UNL1        0.2832
     11 O          66.7936   94.2341   11.3248 O.2     1  UNL1       -0.2622
     12 N          66.9807   94.1113   13.9885 N.am    1  UNL1       -0.2425
     13 C          66.5272   93.1426   15.0401 C.2     1  UNL1        0.2583
     14 O          66.7477   93.2781   16.5176 O.2     1  UNL1       -0.2692
     15 H          67.4753   94.9477   14.1468 H       1  UNL1        0.1587
     16 C          60.8900   90.1062   11.1120 C.3     1  UNL1        0.2526
     17 O          62.2516   89.4962   10.9572 O.3     1  UNL1       -0.4684
     18 O          62.4646   86.6093   11.7448 O.3     1  UNL1       -0.4505
     19 C          62.5500   85.1685   12.1529 C.ar    1  UNL1        0.1493
     20 C          62.3240   84.7796   13.5839 C.ar    1  UNL1        0.0381
     21 C          62.4094   83.3386   13.9920 C.ar    1  UNL1        0.0134
     22 C          62.7209   82.2867   12.9691 C.ar    1  UNL1        0.0686
     23 C          62.9470   82.6756   11.5381 C.ar    1  UNL1        0.0172
     24 C          62.8616   84.1164   11.1300 C.ar    1  UNL1        0.1065
     25 C          63.0877   84.5053    9.6991 C.3     1  UNL1        0.4214
     26 F          63.3137   84.8942    8.2681 F       1  UNL1       -0.1657
     27 F          64.3931   83.7665    9.7046 F       1  UNL1       -0.1657
     28 F          61.7822   85.2441    9.6936 F       1  UNL1       -0.1657
     29 C          62.8064   80.8458   13.3772 C.1     1  UNL1        0.1004
     30 N          62.8919   79.4049   13.7853 N.1     1  UNL1       -0.1908
@<TRIPOS>BOND
     1    16    17    1
     2    17     1    1
     3     1     2   ar
     4     2     3   ar
     5     3     7    1
     6     7     8    2
     7     8     9    1
     8     9    10    1
     9    10    11    2
    10    10    12   am
    11    12    13   am
    12    13    14    2
    13     3     4   ar
    14     4     5   ar
    15     5     6   ar
    16     6    18    1
    17    18    19    1
    18    19    20   ar
    19    20    21   ar
    20    21    22   ar
    21    22    29    1
    22    29    30    3
    23    22    23   ar
    24    23    24   ar
    25    24    25    1
    26    25    26    1
    27    25    27    1
    28    25    28    1
    29     6     1   ar
    30    24    19   ar
    31    13     8    1
    32    12    15    1
@<TRIPOS>MOLECULE
*****
 30 32 0 0 0
SMALL
GASTEIGER

@<TRIPOS>ATOM
      1 C          61.6744   87.2692   10.6068 C.ar    1  UNL1        0.1730
      2 C          61.8989   85.8625   10.1370 C.ar    1  UNL1        0.0401
      3 C          62.7398   84.9248   10.9516 C.ar    1  UNL1        0.0039
      4 C          63.3561   85.3937   12.2362 C.ar    1  UNL1        0.0034
      5 C          63.1316   86.8004   12.7061 C.ar    1  UNL1        0.0406
      6 C          62.2908   87.7381   11.8914 C.ar    1  UNL1        0.1789
      7 C          62.9642   83.5180   10.4817 C.2     1  UNL1        0.0113
      8 C          62.7999   82.3731   11.4367 C.2     1  UNL1        0.0873
      9 S          62.4168   82.4793   12.8830 S.3     1  UNL1       -0.0254
     10 C          62.3699   81.0927   13.4532 C.2     1  UNL1        0.2832
     11 O          62.0289   80.7326   14.8688 O.2     1  UNL1       -0.2622
     12 N          62.7240   80.1294   12.3593 N.am    1  UNL1       -0.2425
     13 C          62.9897   80.9208   11.1130 C.2     1  UNL1        0.2583
     14 O          63.3773   80.3584    9.7774 O.2     1  UNL1       -0.2692
     15 H          62.7734   79.1499   12.4443 H       1  UNL1        0.1587
     16 C          59.7704   87.6642    8.8839 C.3     1  UNL1        0.2526
     17 O          60.8336   88.2069    9.7922 O.3     1  UNL1       -0.4684
     18 O          62.0663   89.1448   12.3614 O.3     1  UNL1       -0.4505
     19 C          63.0831   90.2065   12.0631 C.ar    1  UNL1        0.1493
     20 C          63.1392   90.8294   10.6998 C.ar    1  UNL1        0.0381
     21 C          64.1561   91.8911   10.4016 C.ar    1  UNL1        0.0134
     22 C          65.1168   92.3298   11.4667 C.ar    1  UNL1        0.0686
     23 C          65.0606   91.7069   12.8301 C.ar    1  UNL1        0.0172
     24 C          64.0438   90.6453   13.1283 C.ar    1  UNL1        0.1065
     25 C          63.9877   90.0223   14.4917 C.3     1  UNL1        0.4214
     26 F          63.9315   89.3994   15.8551 F       1  UNL1       -0.1657
     27 F          63.2345   91.2136   15.0050 F       1  UNL1       -0.1657
     28 F          64.7409   88.8310   13.9784 F       1  UNL1       -0.1657
     29 C          66.1336   93.3914   11.1685 C.1     1  UNL1        0.1004
     30 N          67.1505   94.4531   10.8703 N.1     1  UNL1       -0.1908
@<TRIPOS>BOND
     1    16    17    1
     2    17     1    1
     3     1     2   ar
     4     2     3   ar
     5     3     7    1
     6     7     8    2
     7     8     9    1
     8     9    10    1
     9    10    11    2
    10    10    12   am
    11    12    13   am
    12    13    14    2
    13     3     4   ar
    14     4     5   ar
    15     5     6   ar
    16     6    18    1
    17    18    19    1
    18    19    20   ar
    19    20    21   ar
    20    21    22   ar
    21    22    29    1
    22    29    30    3
    23    22    23   ar
    24    23    24   ar
    25    24    25    1
    26    25    26    1
    27    25    27    1
    28    25    28    1
    29     6     1   ar
    30    24    19   ar
    31    13     8    1
    32    12    15    1
@<TRIPOS>MOLECULE
*****
 30 32 0 0 0
SMALL
GASTEIGER

@<TRIPOS>ATOM
      1 C          64.0406   87.1756   14.2480 C.ar    1  UNL1        0.1730
      2 C          64.7565   88.3966   14.7445 C.ar    1  UNL1        0.0401
      3 C          64.6147   89.6985   14.0131 C.ar    1  UNL1        0.0039
      4 C          63.7572   89.7794   12.7851 C.ar    1  UNL1        0.0034
      5 C          63.0414   88.5584   12.2885 C.ar    1  UNL1        0.0406
      6 C          63.1831   87.2565   13.0199 C.ar    1  UNL1        0.1789
      7 C          65.3306   90.9196   14.5098 C.2     1  UNL1        0.0113
      8 C          65.6879   92.0198   13.5549 C.2     1  UNL1        0.0873
      9 S          65.3961   92.0398   12.0837 S.3     1  UNL1       -0.0254
     10 C          65.9277   93.3256   11.5231 C.2     1  UNL1        0.2832
     11 O          65.8521   93.7603   10.0895 O.2     1  UNL1       -0.2622
     12 N          66.5480   94.1003   12.6478 N.am    1  UNL1       -0.2425
     13 C          66.3998   93.2933   13.9035 C.2     1  UNL1        0.2583
     14 O          66.8793   93.6901   15.2683 O.2     1  UNL1       -0.2692
     15 H          66.9770   94.9834   12.5747 H       1  UNL1        0.1587
     16 C          63.6934   85.7500   16.3920 C.3     1  UNL1        0.2526
     17 O          64.1823   85.8737   14.9794 O.3     1  UNL1       -0.4684
     18 O          62.4672   86.0354   12.5233 O.3     1  UNL1       -0.4505
     19 C          62.4646   85.7113   11.0588 C.ar    1  UNL1        0.1493
     20 C          61.8148   86.6485   10.0844 C.ar    1  UNL1        0.0381
     21 C          61.8121   86.3244    8.6198 C.ar    1  UNL1        0.0134
     22 C          62.4593   85.0631    8.1296 C.ar    1  UNL1        0.0686
     23 C          63.1091   84.1259    9.1040 C.ar    1  UNL1        0.0172
     24 C          63.1117   84.4500   10.5685 C.ar    1  UNL1        0.1065
     25 C          63.7615   83.5128   11.5429 C.3     1  UNL1        0.4214
     26 F          64.4113   82.5756   12.5173 F       1  UNL1       -0.1657
     27 F          62.4485   83.3330   12.2456 F       1  UNL1       -0.1657
     28 F          65.0745   83.6925   10.8403 F       1  UNL1       -0.1657
     29 C          62.4566   84.7389    6.6651 C.1     1  UNL1        0.1004
     30 N          62.4540   84.4148    5.2005 N.1     1  UNL1       -0.1908
@<TRIPOS>BOND
     1    16    17    1
     2    17     1    1
     3     1     2   ar
     4     2     3   ar
     5     3     7    1
     6     7     8    2
     7     8     9    1
     8     9    10    1
     9    10    11    2
    10    10    12   am
    11    12    13   am
    12    13    14    2
    13     3     4   ar
    14     4     5   ar
    15     5     6   ar
    16     6    18    1
    17    18    19    1
    18    19    20   ar
    19    20    21   ar
    20    21    22   ar
    21    22    29    1
    22    29    30    3
    23    22    23   ar
    24    23    24   ar
    25    24    25    1
    26    25    26    1
    27    25    27    1
    28    25    28    1
    29     6     1   ar
    30    24    19   ar
    31    13     8    1
    32    12    15    1
@<TRIPOS>MOLECULE
*****
 30 32 0 0 0
SMALL
GASTEIGER

@<TRIPOS>ATOM
      1 C          63.8596   87.6243   13.8047 C.ar    1  UNL1        0.1730
      2 C          64.6651   88.5839   14.6294 C.ar    1  UNL1        0.0401
      3 C          64.7140   90.0359   14.2563 C.ar    1  UNL1        0.0039
      4 C          63.9574   90.5283   13.0584 C.ar    1  UNL1        0.0034
      5 C          63.1519   89.5687   12.2337 C.ar    1  UNL1        0.0406
      6 C          63.1030   88.1167   12.6068 C.ar    1  UNL1        0.1789
      7 C          65.5196   90.9955   15.0811 C.2     1  UNL1        0.0113
      8 C          66.0635   92.2469   14.4580 C.2     1  UNL1        0.0873
      9 S          65.8847   92.6705   13.0302 S.3     1  UNL1       -0.0254
     10 C          66.5924   93.9798   12.8430 C.2     1  UNL1        0.2832
     11 O          66.6702   94.7655   11.5677 O.2     1  UNL1       -0.2622
     12 N          67.2085   94.3653   14.1552 N.am    1  UNL1       -0.2425
     13 C          66.8817   93.2944   15.1532 C.2     1  UNL1        0.2583
     14 O          67.2996   93.2744   16.5937 O.2     1  UNL1       -0.2692
     15 H          67.7350   95.1786   14.3305 H       1  UNL1        0.1587
     16 C          63.9543   85.7615   15.6133 C.3     1  UNL1        0.2526
     17 O          63.8108   86.1722   14.1778 O.3     1  UNL1       -0.4684
     18 O          62.2974   87.1571   11.7820 O.3     1  UNL1       -0.4505
     19 C          61.5451   87.6485   10.5810 C.ar    1  UNL1        0.1493
     20 C          60.7499   88.9178   10.6618 C.ar    1  UNL1        0.0381
     21 C          59.9975   89.4093    9.4607 C.ar    1  UNL1        0.0134
     22 C          60.0404   88.6315    8.1789 C.ar    1  UNL1        0.0686
     23 C          60.8357   87.3622    8.0981 C.ar    1  UNL1        0.0172
     24 C          61.5880   86.8707    9.2991 C.ar    1  UNL1        0.1065
     25 C          62.3832   85.6014    9.2182 C.3     1  UNL1        0.4214
     26 F          63.1785   84.3322    9.1374 F       1  UNL1       -0.1657
     27 F          61.4426   84.9504   10.1885 F       1  UNL1       -0.1657
     28 F          63.3238   86.2525    8.2480 F       1  UNL1       -0.1657
     29 C          59.2881   89.1229    6.9779 C.1     1  UNL1        0.1004
     30 N          58.5358   89.6144    5.7768 N.1     1  UNL1       -0.1908
@<TRIPOS>BOND
     1    16    17    1
     2    17     1    1
     3     1     2   ar
     4     2     3   ar
     5     3     7    1
     6     7     8    2
     7     8     9    1
     8     9    10    1
     9    10    11    2
    10    10    12   am
    11    12    13   am
    12    13    14    2
    13     3     4   ar
    14     4     5   ar
    15     5     6   ar
    16     6    18    1
    17    18    19    1
    18    19    20   ar
    19    20    21   ar
    20    21    22   ar
    21    22    29    1
    22    29    30    3
    23    22    23   ar
    24    23    24   ar
    25    24    25    1
    26    25    26    1
    27    25    27    1
    28    25    28    1
    29     6     1   ar
    30    24    19   ar
    31    13     8    1
    32    12    15    1
@<TRIPOS>MOLECULE
*****
 30 32 0 0 0
SMALL
GASTEIGER

@<TRIPOS>ATOM
      1 C          62.5365   90.2596   10.3511 C.ar    1  UNL1        0.1730
      2 C          63.3665   91.5081   10.3020 C.ar    1  UNL1        0.0401
      3 C          64.2225   91.8862   11.4743 C.ar    1  UNL1        0.0039
      4 C          64.2486   91.0159   12.6956 C.ar    1  UNL1        0.0034
      5 C          63.4187   89.7674   12.7447 C.ar    1  UNL1        0.0406
      6 C          62.5626   89.3893   11.5724 C.ar    1  UNL1        0.1789
      7 C          65.0525   93.1348   11.4252 C.2     1  UNL1        0.0113
      8 C          66.3134   93.1657   10.6133 C.2     1  UNL1        0.0873
      9 S          66.8682   92.0321    9.8027 S.3     1  UNL1       -0.0254
     10 C          68.1385   92.5014    9.1579 C.2     1  UNL1        0.2832
     11 O          69.0232   91.6896    8.2588 O.2     1  UNL1       -0.2622
     12 N          68.3689   93.9252    9.5699 N.am    1  UNL1       -0.2425
     13 C          67.2409   94.3358   10.4693 C.2     1  UNL1        0.2583
     14 O          67.0704   95.6803   11.1121 O.2     1  UNL1       -0.2692
     15 H          69.1273   94.4909    9.2977 H       1  UNL1        0.1587
     16 C          60.2057   89.6780    9.3617 C.3     1  UNL1        0.2526
     17 O          61.6805   89.8815    9.1788 O.3     1  UNL1       -0.4684
     18 O          61.7327   88.1407   11.6215 O.3     1  UNL1       -0.4505
     19 C          62.3984   86.8017   11.7388 C.ar    1  UNL1        0.1493
     20 C          63.0752   86.4102   13.0189 C.ar    1  UNL1        0.0381
     21 C          63.7410   85.0711   13.1362 C.ar    1  UNL1        0.0134
     22 C          63.7300   84.1236   11.9734 C.ar    1  UNL1        0.0686
     23 C          63.0532   84.5152   10.6933 C.ar    1  UNL1        0.0172
     24 C          62.3874   85.8542   10.5760 C.ar    1  UNL1        0.1065
     25 C          61.7107   86.2457    9.2959 C.3     1  UNL1        0.4214
     26 F          61.0339   86.6373    8.0158 F       1  UNL1       -0.1657
     27 F          63.0393   86.2668    8.5999 F       1  UNL1       -0.1657
     28 F          60.3821   86.2247    9.9918 F       1  UNL1       -0.1657
     29 C          64.3957   82.7846   12.0907 C.1     1  UNL1        0.1004
     30 N          65.0615   81.4455   12.2079 N.1     1  UNL1       -0.1908
@<TRIPOS>BOND
     1    16    17    1
     2    17     1    1
     3     1     2   ar
     4     2     3   ar
     5     3     7    1
     6     7     8    2
     7     8     9    1
     8     9    10    1
     9    10    11    2
    10    10    12   am
    11    12    13   am
    12    13    14    2
    13     3     4   ar
    14     4     5   ar
    15     5     6   ar
    16     6    18    1
    17    18    19    1
    18    19    20   ar
    19    20    21   ar
    20    21    22   ar
    21    22    29    1
    22    29    30    3
    23    22    23   ar
    24    23    24   ar
    25    24    25    1
    26    25    26    1
    27    25    27    1
    28    25    28    1
    29     6     1   ar
    30    24    19   ar
    31    13     8    1
    32    12    15    1
@<TRIPOS>MOLECULE
*****
 30 32 0 0 0
SMALL
GASTEIGER

@<TRIPOS>ATOM
      1 C          63.8441   87.5447   14.1079 C.ar    1  UNL1        0.1730
      2 C          64.6544   88.7123   14.5875 C.ar    1  UNL1        0.0401
      3 C          64.6296   90.0052   13.8274 C.ar    1  UNL1        0.0039
      4 C          63.7945   90.1306   12.5877 C.ar    1  UNL1        0.0034
      5 C          62.9841   88.9630   12.1082 C.ar    1  UNL1        0.0406
      6 C          63.0090   87.6700   12.8682 C.ar    1  UNL1        0.1789
      7 C          65.4400   91.1729   14.3070 C.2     1  UNL1        0.0113
      8 C          65.7859   92.2847   13.3614 C.2     1  UNL1        0.0873
      9 S          65.3939   92.3668   11.9159 S.3     1  UNL1       -0.0254
     10 C          65.9503   93.6425   11.3564 C.2     1  UNL1        0.2832
     11 O          65.7976   94.1267    9.9450 O.2     1  UNL1       -0.2622
     12 N          66.6863   94.3488   12.4561 N.am    1  UNL1       -0.2425
     13 C          66.5847   93.5097   13.6953 C.2     1  UNL1        0.2583
     14 O          67.1777   93.8379   15.0334 O.2     1  UNL1       -0.2692
     15 H          67.1539   95.2116   12.3783 H       1  UNL1        0.1587
     16 C          64.6865   85.1003   14.3626 C.3     1  UNL1        0.2526
     17 O          63.8689   86.2518   14.8680 O.3     1  UNL1       -0.4684
     18 O          62.1986   86.5024   12.3886 O.3     1  UNL1       -0.4505
     19 C          62.2692   86.0804   10.9509 C.ar    1  UNL1        0.1493
     20 C          63.1122   84.9046   10.5549 C.ar    1  UNL1        0.0381
     21 C          63.1828   84.4826    9.1172 C.ar    1  UNL1        0.0134
     22 C          62.4105   85.2365    8.0755 C.ar    1  UNL1        0.0686
     23 C          61.5675   86.4124    8.4715 C.ar    1  UNL1        0.0172
     24 C          61.4969   86.8343    9.9092 C.ar    1  UNL1        0.1065
     25 C          60.6539   88.0102   10.3052 C.3     1  UNL1        0.4214
     26 F          59.8109   89.1860   10.7011 F       1  UNL1       -0.1657
     27 F          59.9910   87.1787   11.3631 F       1  UNL1       -0.1657
     28 F          61.3168   88.8417    9.2472 F       1  UNL1       -0.1657
     29 C          62.4811   84.8146    6.6379 C.1     1  UNL1        0.1004
     30 N          62.5518   84.3926    5.2001 N.1     1  UNL1       -0.1908
@<TRIPOS>BOND
     1    16    17    1
     2    17     1    1
     3     1     2   ar
     4     2     3   ar
     5     3     7    1
     6     7     8    2
     7     8     9    1
     8     9    10    1
     9    10    11    2
    10    10    12   am
    11    12    13   am
    12    13    14    2
    13     3     4   ar
    14     4     5   ar
    15     5     6   ar
    16     6    18    1
    17    18    19    1
    18    19    20   ar
    19    20    21   ar
    20    21    22   ar
    21    22    29    1
    22    29    30    3
    23    22    23   ar
    24    23    24   ar
    25    24    25    1
    26    25    26    1
    27    25    27    1
    28    25    28    1
    29     6     1   ar
    30    24    19   ar
    31    13     8    1
    32    12    15    1
@<TRIPOS>MOLECULE
*****
 30 32 0 0 0
SMALL
GASTEIGER

@<TRIPOS>ATOM
      1 C          62.2028   89.5493   10.1289 C.ar    1  UNL1        0.1730
      2 C          63.0625   90.7774   10.0765 C.ar    1  UNL1        0.0401
      3 C          63.9023   91.1560   11.2603 C.ar    1  UNL1        0.0039
      4 C          63.8824   90.3067   12.4965 C.ar    1  UNL1        0.0034
      5 C          63.0227   89.0786   12.5488 C.ar    1  UNL1        0.0406
      6 C          62.1829   88.7000   11.3650 C.ar    1  UNL1        0.1789
      7 C          64.7620   92.3842   11.2079 C.2     1  UNL1        0.0113
      8 C          65.5206   92.8211   12.4260 C.2     1  UNL1        0.0873
      9 S          65.5177   92.1349   13.7598 S.3     1  UNL1       -0.0254
     10 C          66.4105   92.9107   14.6822 C.2     1  UNL1        0.2832
     11 O          66.6981   92.5790   16.1165 O.2     1  UNL1       -0.2622
     12 N          66.9653   94.0765   13.9185 N.am    1  UNL1       -0.2425
     13 C          66.4153   94.0211   12.5241 C.2     1  UNL1        0.2583
     14 O          66.7085   94.9948   11.4214 O.2     1  UNL1       -0.2692
     15 H          67.5821   94.7583   14.2707 H       1  UNL1        0.1587
     16 C          59.8701   89.2987    9.0129 C.3     1  UNL1        0.2526
     17 O          61.3631   89.1707    8.9450 O.3     1  UNL1       -0.4684
     18 O          61.3232   87.4719   11.4174 O.3     1  UNL1       -0.4505
     19 C          61.9340   86.1423   11.7475 C.ar    1  UNL1        0.1493
     20 C          62.1737   85.7615   13.1784 C.ar    1  UNL1        0.0381
     21 C          62.7845   84.4318   13.5085 C.ar    1  UNL1        0.0134
     22 C          63.1557   83.4830   12.4076 C.ar    1  UNL1        0.0686
     23 C          62.9160   83.8638   10.9767 C.ar    1  UNL1        0.0172
     24 C          62.3052   85.1934   10.6466 C.ar    1  UNL1        0.1065
     25 C          62.0655   85.5741    9.2157 C.3     1  UNL1        0.4214
     26 F          61.8259   85.9549    7.7847 F       1  UNL1       -0.1657
     27 F          63.5107   85.3183    8.9055 F       1  UNL1       -0.1657
     28 F          60.6204   85.8300    9.5258 F       1  UNL1       -0.1657
     29 C          63.7665   82.1534   12.7377 C.1     1  UNL1        0.1004
     30 N          64.3774   80.8237   13.0678 N.1     1  UNL1       -0.1908
@<TRIPOS>BOND
     1    16    17    1
     2    17     1    1
     3     1     2   ar
     4     2     3   ar
     5     3     7    1
     6     7     8    2
     7     8     9    1
     8     9    10    1
     9    10    11    2
    10    10    12   am
    11    12    13   am
    12    13    14    2
    13     3     4   ar
    14     4     5   ar
    15     5     6   ar
    16     6    18    1
    17    18    19    1
    18    19    20   ar
    19    20    21   ar
    20    21    22   ar
    21    22    29    1
    22    29    30    3
    23    22    23   ar
    24    23    24   ar
    25    24    25    1
    26    25    26    1
    27    25    27    1
    28    25    28    1
    29     6     1   ar
    30    24    19   ar
    31    13     8    1
    32    12    15    1
