@<TRIPOS>MOLECULE
*****
 30 32 0 0 0
SMALL
GASTEIGER

@<TRIPOS>ATOM
      1 C          61.7082   88.3461   11.2747 C.ar    1  UNL1        0.0577
      2 C          62.7252   88.2993   12.3762 C.ar    1  UNL1        0.0462
      3 C          63.6279   89.4735   12.6140 C.ar    1  UNL1        0.1602
      4 F          64.6449   89.4267   13.7156 F       1  UNL1       -0.2027
      5 C          63.5135   90.6945   11.7502 C.ar    1  UNL1        0.1534
      6 C          62.4964   90.7412   10.6486 C.ar    1  UNL1        0.0351
      7 C          61.5938   89.5671   10.4109 C.ar    1  UNL1        0.0722
      8 CL         60.5767   89.6138    9.3093 Cl      1  UNL1       -0.0809
      9 S          64.4161   91.8686   11.9879 S.O2    1  UNL1        0.0772
     10 O          64.8555   91.8211   10.5546 O.2     1  UNL1       -0.1498
     11 O          63.9767   91.9162   13.4213 O.2     1  UNL1       -0.1498
     12 N          65.3187   93.0428   12.2257 N.pl3   1  UNL1       -0.1936
     13 H          65.2431   93.8444   11.6592 H       1  UNL1        0.1758
     14 C          66.3366   92.9956   13.3265 C.ar    1  UNL1        0.1786
     15 N          66.4293   93.9463   14.4830 N.ar    1  UNL1       -0.2214
     16 C          67.5904   93.5277   15.3354 C.ar    1  UNL1        0.1079
     17 C          68.2154   92.3181   14.7056 C.ar    1  UNL1        0.0588
     18 S          67.4405   91.9893   13.4641 S.2     1  UNL1       -0.0497
     19 N          60.8055   87.1719   11.0369 N.pl3   1  UNL1       -0.3319
     20 H          59.9410   87.1130   11.5043 H       1  UNL1        0.1468
     21 C          61.2200   86.0875   10.0870 C.3     1  UNL1        0.0870
     22 C          62.5870   85.4794   10.1933 C.3     1  UNL1        0.0213
     23 O          63.3251   82.2073   14.8398 O.2     1  UNL1       -0.1730
     24 S          63.4368   82.3926   13.3554 S.O2    1  UNL1       -0.0100
     25 O          63.9824   81.0014   13.4860 O.2     1  UNL1       -0.1730
     26 C          63.7379   82.0948   11.9165 C.3     1  UNL1        0.1508
     27 C          63.4546   83.1237   10.8625 C.3     1  UNL1        0.0254
     28 C          62.8703   84.4505   11.2473 C.3     1  UNL1        0.0052
     29 C          62.5691   84.7483   12.6863 C.3     1  UNL1        0.0254
     30 C          62.8524   83.7193   13.7403 C.3     1  UNL1        0.1508
@<TRIPOS>BOND
     1    23    24    2
     2    24    25    2
     3    24    26    1
     4    26    27    1
     5    27    28    1
     6    28    22    1
     7    22    21    1
     8    21    19    1
     9    19     1    1
    10     1     2   ar
    11     2     3   ar
    12     3     4    1
    13     3     5   ar
    14     5     9    1
    15     9    10    2
    16     9    11    2
    17     9    12    1
    18    12    14    1
    19    14    15   ar
    20    15    16   ar
    21    16    17   ar
    22    17    18   ar
    23     5     6   ar
    24     6     7   ar
    25     7     8    1
    26    28    29    1
    27    29    30    1
    28    30    24    1
    29     7     1   ar
    30    18    14   ar
    31    19    20    1
    32    12    13    1
@<TRIPOS>MOLECULE
*****
 30 32 0 0 0
SMALL
GASTEIGER

@<TRIPOS>ATOM
      1 C          63.8055   90.5160   14.2967 C.ar    1  UNL1        0.0577
      2 C          65.0278   91.1514   14.8900 C.ar    1  UNL1        0.0462
      3 C          65.8947   92.0404   14.0484 C.ar    1  UNL1        0.1602
      4 F          67.1170   92.6757   14.6418 F       1  UNL1       -0.2027
      5 C          65.5391   92.2941   12.6134 C.ar    1  UNL1        0.1534
      6 C          64.3166   91.6587   12.0200 C.ar    1  UNL1        0.0351
      7 C          63.4499   90.7697   12.8617 C.ar    1  UNL1        0.0722
      8 CL         62.2274   90.1343   12.2683 Cl      1  UNL1       -0.0809
      9 S          66.4058   93.1830   11.7718 S.O2    1  UNL1        0.0772
     10 O          66.2402   92.2464   10.6119 O.2     1  UNL1       -0.1498
     11 O          66.5715   94.1196   12.9316 O.2     1  UNL1       -0.1498
     12 N          67.2726   94.0720   10.9301 N.pl3   1  UNL1       -0.1936
     13 H          68.2495   93.9499   10.9299 H       1  UNL1        0.1758
     14 C          66.6510   95.1471   10.0888 C.ar    1  UNL1        0.1786
     15 N          65.3436   95.8317   10.3575 N.ar    1  UNL1       -0.2214
     16 C          65.1123   96.8340    9.2659 C.ar    1  UNL1        0.1079
     17 C          66.2766   96.7690    8.3224 C.ar    1  UNL1        0.0588
     18 S          67.2276   95.7264    8.8310 S.2     1  UNL1       -0.0497
     19 N          62.9386   89.6270   15.1383 N.pl3   1  UNL1       -0.3319
     20 H          62.1009   89.2643   14.7697 H       1  UNL1        0.1468
     21 C          63.3482   89.2906   16.5415 C.3     1  UNL1        0.0870
     22 C          62.9635   87.9696   17.1388 C.3     1  UNL1        0.0213
     23 O          64.7364   83.6260   13.8476 O.2     1  UNL1       -0.1730
     24 S          63.8145   84.1569   14.9052 S.O2    1  UNL1       -0.0100
     25 O          63.3273   82.7406   14.8221 O.2     1  UNL1       -0.1730
     26 C          62.7236   84.1959   15.9339 C.3     1  UNL1        0.1508
     27 C          62.4399   85.4668   16.6784 C.3     1  UNL1        0.0254
     28 C          63.2472   86.6987   16.3943 C.3     1  UNL1        0.0052
     29 C          64.3382   86.6596   15.3656 C.3     1  UNL1        0.0254
     30 C          64.6218   85.3887   14.6211 C.3     1  UNL1        0.1508
@<TRIPOS>BOND
     1    23    24    2
     2    24    25    2
     3    24    26    1
     4    26    27    1
     5    27    28    1
     6    28    22    1
     7    22    21    1
     8    21    19    1
     9    19     1    1
    10     1     2   ar
    11     2     3   ar
    12     3     4    1
    13     3     5   ar
    14     5     9    1
    15     9    10    2
    16     9    11    2
    17     9    12    1
    18    12    14    1
    19    14    15   ar
    20    15    16   ar
    21    16    17   ar
    22    17    18   ar
    23     5     6   ar
    24     6     7   ar
    25     7     8    1
    26    28    29    1
    27    29    30    1
    28    30    24    1
    29     7     1   ar
    30    18    14   ar
    31    19    20    1
    32    12    13    1
@<TRIPOS>MOLECULE
*****
 30 32 0 0 0
SMALL
GASTEIGER

@<TRIPOS>ATOM
      1 C          61.7835   88.5566   11.4463 C.ar    1  UNL1        0.0577
      2 C          62.8404   88.5473   12.5106 C.ar    1  UNL1        0.0462
      3 C          63.7732   89.7136   12.6515 C.ar    1  UNL1        0.1602
      4 F          64.8302   89.7042   13.7158 F       1  UNL1       -0.2027
      5 C          63.6489   90.8892   11.7282 C.ar    1  UNL1        0.1534
      6 C          62.5919   90.8985   10.6639 C.ar    1  UNL1        0.0351
      7 C          61.6592   89.7322   10.5230 C.ar    1  UNL1        0.0722
      8 CL         60.6021   89.7415    9.4587 Cl      1  UNL1       -0.0809
      9 S          64.5816   92.0554   11.8692 S.O2    1  UNL1        0.0772
     10 O          64.7976   92.0620   10.3848 O.2     1  UNL1       -0.1498
     11 O          64.3655   92.0489   13.3535 O.2     1  UNL1       -0.1498
     12 N          65.5143   93.2217   12.0101 N.pl3   1  UNL1       -0.1936
     13 H          65.4463   93.8145   12.7932 H       1  UNL1        0.1758
     14 C          66.5505   93.4847   10.9579 C.ar    1  UNL1        0.1786
     15 N          67.6856   92.5752   10.5915 N.ar    1  UNL1       -0.2214
     16 C          68.4702   93.2319    9.4946 C.ar    1  UNL1        0.1079
     17 C          67.8200   94.5473    9.1831 C.ar    1  UNL1        0.0588
     18 S          66.6336   94.7036   10.0875 S.2     1  UNL1       -0.0497
     19 N          60.8507   87.3903   11.3053 N.pl3   1  UNL1       -0.3319
     20 H          60.0236   87.3543   11.8381 H       1  UNL1        0.1468
     21 C          61.1782   86.2790   10.3526 C.3     1  UNL1        0.0870
     22 C          62.5358   85.6419   10.3816 C.3     1  UNL1        0.0213
     23 O          63.9391   81.0255   13.4738 O.2     1  UNL1       -0.1730
     24 S          63.4565   82.4444   13.4112 S.O2    1  UNL1       -0.0100
     25 O          63.4441   82.2304   14.8958 O.2     1  UNL1       -0.1730
     26 C          62.9696   83.7889   13.8641 C.3     1  UNL1        0.1508
     27 C          62.6627   84.8548   12.8543 C.3     1  UNL1        0.0254
     28 C          62.8427   84.5761   11.3914 C.3     1  UNL1        0.0052
     29 C          63.3296   83.2316   10.9385 C.3     1  UNL1        0.0254
     30 C          63.6365   82.1658   11.9484 C.3     1  UNL1        0.1508
@<TRIPOS>BOND
     1    23    24    2
     2    24    25    2
     3    24    26    1
     4    26    27    1
     5    27    28    1
     6    28    22    1
     7    22    21    1
     8    21    19    1
     9    19     1    1
    10     1     2   ar
    11     2     3   ar
    12     3     4    1
    13     3     5   ar
    14     5     9    1
    15     9    10    2
    16     9    11    2
    17     9    12    1
    18    12    14    1
    19    14    15   ar
    20    15    16   ar
    21    16    17   ar
    22    17    18   ar
    23     5     6   ar
    24     6     7   ar
    25     7     8    1
    26    28    29    1
    27    29    30    1
    28    30    24    1
    29     7     1   ar
    30    18    14   ar
    31    19    20    1
    32    12    13    1
@<TRIPOS>MOLECULE
*****
 30 32 0 0 0
SMALL
GASTEIGER

@<TRIPOS>ATOM
      1 C          62.2115   87.9885   10.8703 C.ar    1  UNL1        0.0577
      2 C          63.0855   88.1919   12.0723 C.ar    1  UNL1        0.0462
      3 C          63.4317   87.0284   12.9534 C.ar    1  UNL1        0.1602
      4 F          64.3057   87.2318   14.1554 F       1  UNL1       -0.2027
      5 C          62.9039   85.6615   12.6325 C.ar    1  UNL1        0.1534
      6 C          62.0299   85.4581   11.4305 C.ar    1  UNL1        0.0351
      7 C          61.6837   86.6216   10.5494 C.ar    1  UNL1        0.0722
      8 CL         60.8097   86.4182    9.3474 Cl      1  UNL1       -0.0809
      9 S          63.2501   84.4980   13.5136 S.O2    1  UNL1        0.0772
     10 O          64.2223   84.0065   12.4825 O.2     1  UNL1       -0.1498
     11 O          62.2779   84.9895   14.5447 O.2     1  UNL1       -0.1498
     12 N          63.5963   83.3345   14.3947 N.pl3   1  UNL1       -0.1936
     13 H          64.2151   83.4564   15.1506 H       1  UNL1        0.1758
     14 C          62.9998   81.9850   14.1240 C.ar    1  UNL1        0.1786
     15 N          63.7571   80.7444   13.7535 N.ar    1  UNL1       -0.2214
     16 C          62.7665   79.6320   13.5767 C.ar    1  UNL1        0.1079
     17 C          61.3969   80.1851   13.8380 C.ar    1  UNL1        0.0588
     18 S          61.5411   81.6393   14.1762 S.2     1  UNL1       -0.0497
     19 N          61.8652   89.1521    9.9891 N.pl3   1  UNL1       -0.3319
     20 H          61.5618   88.9969    9.0655 H       1  UNL1        0.1468
     21 C          61.9814   90.5520   10.5153 C.3     1  UNL1        0.0870
     22 C          63.1734   91.3903   10.1600 C.3     1  UNL1        0.0213
     23 O          66.5515   92.0867   14.7367 O.2     1  UNL1       -0.1730
     24 S          66.2728   92.3327   13.2834 S.O2    1  UNL1       -0.0100
     25 O          67.5769   93.0601   13.4254 O.2     1  UNL1       -0.1730
     26 C          66.4470   92.8314   11.8796 C.3     1  UNL1        0.1508
     27 C          65.4139   92.5172   10.8384 C.3     1  UNL1        0.0254
     28 C          64.2065   91.7044   11.2012 C.3     1  UNL1        0.0052
     29 C          64.0323   91.2058   12.6051 C.3     1  UNL1        0.0254
     30 C          65.0654   91.5199   13.6462 C.3     1  UNL1        0.1508
@<TRIPOS>BOND
     1    23    24    2
     2    24    25    2
     3    24    26    1
     4    26    27    1
     5    27    28    1
     6    28    22    1
     7    22    21    1
     8    21    19    1
     9    19     1    1
    10     1     2   ar
    11     2     3   ar
    12     3     4    1
    13     3     5   ar
    14     5     9    1
    15     9    10    2
    16     9    11    2
    17     9    12    1
    18    12    14    1
    19    14    15   ar
    20    15    16   ar
    21    16    17   ar
    22    17    18   ar
    23     5     6   ar
    24     6     7   ar
    25     7     8    1
    26    28    29    1
    27    29    30    1
    28    30    24    1
    29     7     1   ar
    30    18    14   ar
    31    19    20    1
    32    12    13    1
@<TRIPOS>MOLECULE
*****
 30 32 0 0 0
SMALL
GASTEIGER

@<TRIPOS>ATOM
      1 C          62.9049   89.4612   11.9836 C.ar    1  UNL1        0.0577
      2 C          62.8673   90.4585   10.8638 C.ar    1  UNL1        0.0462
      3 C          63.8348   91.6048   10.8476 C.ar    1  UNL1        0.1602
      4 F          63.7972   92.6021    9.7278 F       1  UNL1       -0.2027
      5 C          64.8397   91.7536   11.9512 C.ar    1  UNL1        0.1534
      6 C          64.8772   90.7562   13.0710 C.ar    1  UNL1        0.0351
      7 C          63.9098   89.6100   13.0871 C.ar    1  UNL1        0.0722
      8 CL         63.9473   88.6126   14.2069 Cl      1  UNL1       -0.0809
      9 S          65.8071   92.8998   11.9350 S.O2    1  UNL1        0.0772
     10 O          66.2350   92.5192   10.5487 O.2     1  UNL1       -0.1498
     11 O          65.3793   93.2805   13.3214 O.2     1  UNL1       -0.1498
     12 N          66.7745   94.0460   11.9189 N.pl3   1  UNL1       -0.1936
     13 H          67.4260   94.1507   12.6496 H       1  UNL1        0.1758
     14 C          66.7495   95.0328   10.7893 C.ar    1  UNL1        0.1786
     15 N          67.7542   95.1284    9.6797 N.ar    1  UNL1       -0.2214
     16 C          67.3410   96.2519    8.7757 C.ar    1  UNL1        0.1079
     17 C          66.0808   96.8506    9.3267 C.ar    1  UNL1        0.0588
     18 S          65.7153   96.0971   10.5712 S.2     1  UNL1       -0.0497
     19 N          61.9374   88.3149   11.9998 N.pl3   1  UNL1       -0.3319
     20 H          61.8728   87.7365   12.7938 H       1  UNL1        0.1468
     21 C          61.0685   88.0499   10.8061 C.3     1  UNL1        0.0870
     22 C          60.8537   86.6431   10.3323 C.3     1  UNL1        0.0213
     23 O          64.5253   82.7276   12.3398 O.2     1  UNL1       -0.1730
     24 S          63.9452   83.4856   11.1827 S.O2    1  UNL1       -0.0100
     25 O          64.9440   82.6312   10.4599 O.2     1  UNL1       -0.1730
     26 C          63.7120   83.9469    9.7746 C.3     1  UNL1        0.1508
     27 C          62.6815   84.9994    9.4911 C.3     1  UNL1        0.0254
     28 C          61.8842   85.5906   10.6158 C.3     1  UNL1        0.0052
     29 C          62.1174   85.1293   12.0238 C.3     1  UNL1        0.0254
     30 C          63.1479   84.0768   12.3073 C.3     1  UNL1        0.1508
@<TRIPOS>BOND
     1    23    24    2
     2    24    25    2
     3    24    26    1
     4    26    27    1
     5    27    28    1
     6    28    22    1
     7    22    21    1
     8    21    19    1
     9    19     1    1
    10     1     2   ar
    11     2     3   ar
    12     3     4    1
    13     3     5   ar
    14     5     9    1
    15     9    10    2
    16     9    11    2
    17     9    12    1
    18    12    14    1
    19    14    15   ar
    20    15    16   ar
    21    16    17   ar
    22    17    18   ar
    23     5     6   ar
    24     6     7   ar
    25     7     8    1
    26    28    29    1
    27    29    30    1
    28    30    24    1
    29     7     1   ar
    30    18    14   ar
    31    19    20    1
    32    12    13    1
@<TRIPOS>MOLECULE
*****
 30 32 0 0 0
SMALL
GASTEIGER

@<TRIPOS>ATOM
      1 C          61.1732   90.1760   10.4166 C.ar    1  UNL1        0.0577
      2 C          62.5444   90.7327   10.1720 C.ar    1  UNL1        0.0462
      3 C          63.5308   90.8191   11.2988 C.ar    1  UNL1        0.1602
      4 F          64.9020   91.3758   11.0543 F       1  UNL1       -0.2027
      5 C          63.1458   90.3488   12.6702 C.ar    1  UNL1        0.1534
      6 C          61.7746   89.7921   12.9147 C.ar    1  UNL1        0.0351
      7 C          60.7883   89.7057   11.7879 C.ar    1  UNL1        0.0722
      8 CL         59.4170   89.1490   12.0325 Cl      1  UNL1       -0.0809
      9 S          64.1321   90.4352   13.7970 S.O2    1  UNL1        0.0772
     10 O          64.2478   88.9398   13.8104 O.2     1  UNL1       -0.1498
     11 O          64.0164   91.9307   13.7836 O.2     1  UNL1       -0.1498
     12 N          65.1184   90.5217   14.9238 N.pl3   1  UNL1       -0.1936
     13 H          65.0268   89.9291   15.7047 H       1  UNL1        0.1758
     14 C          66.2443   91.5108   14.8609 C.ar    1  UNL1        0.1786
     15 N          67.3084   91.5696   13.8053 N.ar    1  UNL1       -0.2214
     16 C          68.2255   92.7100   14.1345 C.ar    1  UNL1        0.1079
     17 C          67.7282   93.3561   15.3937 C.ar    1  UNL1        0.0588
     18 S          66.5038   92.6150   15.8426 S.2     1  UNL1       -0.0497
     19 N          60.1868   90.0895    9.2897 N.pl3   1  UNL1       -0.3319
     20 H          59.5133   90.7975    9.1697 H       1  UNL1        0.1468
     21 C          60.2268   88.9245    8.3458 C.3     1  UNL1        0.0870
     22 C          59.8386   87.5572    8.8251 C.3     1  UNL1        0.0213
     23 O          64.0909   83.8229    9.7281 O.2     1  UNL1       -0.1730
     24 S          62.9992   84.6979   10.2692 S.O2    1  UNL1       -0.0100
     25 O          63.5218   84.1127   11.5477 O.2     1  UNL1       -0.1730
     26 C          62.0891   85.3697   11.2542 C.3     1  UNL1        0.1508
     27 C          61.0356   86.3228   10.7728 C.3     1  UNL1        0.0254
     28 C          60.8922   86.6041    9.3065 C.3     1  UNL1        0.0052
     29 C          61.8023   85.9323    8.3215 C.3     1  UNL1        0.0254
     30 C          62.8558   84.9792    8.8028 C.3     1  UNL1        0.1508
@<TRIPOS>BOND
     1    23    24    2
     2    24    25    2
     3    24    26    1
     4    26    27    1
     5    27    28    1
     6    28    22    1
     7    22    21    1
     8    21    19    1
     9    19     1    1
    10     1     2   ar
    11     2     3   ar
    12     3     4    1
    13     3     5   ar
    14     5     9    1
    15     9    10    2
    16     9    11    2
    17     9    12    1
    18    12    14    1
    19    14    15   ar
    20    15    16   ar
    21    16    17   ar
    22    17    18   ar
    23     5     6   ar
    24     6     7   ar
    25     7     8    1
    26    28    29    1
    27    29    30    1
    28    30    24    1
    29     7     1   ar
    30    18    14   ar
    31    19    20    1
    32    12    13    1
@<TRIPOS>MOLECULE
*****
 30 32 0 0 0
SMALL
GASTEIGER

@<TRIPOS>ATOM
      1 C          64.1978   90.1613   13.6925 C.ar    1  UNL1        0.0577
      2 C          63.5102   91.0058   12.6610 C.ar    1  UNL1        0.0462
      3 C          62.6258   90.3632   11.6338 C.ar    1  UNL1        0.1602
      4 F          61.9381   91.2077   10.6024 F       1  UNL1       -0.2027
      5 C          62.4291   88.8762   11.6382 C.ar    1  UNL1        0.1534
      6 C          63.1168   88.0317   12.6697 C.ar    1  UNL1        0.0351
      7 C          64.0012   88.6743   13.6968 C.ar    1  UNL1        0.0722
      8 CL         64.6889   87.8298   14.7284 Cl      1  UNL1       -0.0809
      9 S          61.5448   88.2336   10.6111 S.O2    1  UNL1        0.0772
     10 O          62.4613   88.7104    9.5236 O.2     1  UNL1       -0.1498
     11 O          60.6282   87.7568   11.6985 O.2     1  UNL1       -0.1498
     12 N          60.6605   87.5910    9.5840 N.pl3   1  UNL1       -0.1936
     13 H          59.7171   87.8621    9.5077 H       1  UNL1        0.1758
     14 C          61.2134   86.5353    8.6730 C.ar    1  UNL1        0.1786
     15 N          62.5809   85.9248    8.7587 N.ar    1  UNL1       -0.2214
     16 C          62.7086   84.9169    7.6551 C.ar    1  UNL1        0.1079
     17 C          61.4199   84.9045    6.8874 C.ar    1  UNL1        0.0588
     18 S          60.4959   85.9047    7.5165 S.2     1  UNL1       -0.0497
     19 N          65.0822   90.8039   14.7197 N.pl3   1  UNL1       -0.3319
     20 H          65.1251   90.4359   15.6318 H       1  UNL1        0.1468
     21 C          65.9012   92.0071   14.3571 C.3     1  UNL1        0.0870
     22 C          66.9672   91.9002   13.3072 C.3     1  UNL1        0.0213
     23 O          66.3322   95.9375    9.2899 O.2     1  UNL1       -0.1730
     24 S          66.8551   94.5940    9.7043 S.O2    1  UNL1       -0.0100
     25 O          67.3208   94.6264    8.2788 O.2     1  UNL1       -0.1730
     26 C          67.5397   93.2619    9.6237 C.3     1  UNL1        0.1508
     27 C          67.5771   92.3639   10.8247 C.3     1  UNL1        0.0254
     28 C          66.9298   92.7982   12.1062 C.3     1  UNL1        0.0052
     29 C          66.2452   94.1303   12.1868 C.3     1  UNL1        0.0254
     30 C          66.2079   95.0283   10.9859 C.3     1  UNL1        0.1508
@<TRIPOS>BOND
     1    23    24    2
     2    24    25    2
     3    24    26    1
     4    26    27    1
     5    27    28    1
     6    28    22    1
     7    22    21    1
     8    21    19    1
     9    19     1    1
    10     1     2   ar
    11     2     3   ar
    12     3     4    1
    13     3     5   ar
    14     5     9    1
    15     9    10    2
    16     9    11    2
    17     9    12    1
    18    12    14    1
    19    14    15   ar
    20    15    16   ar
    21    16    17   ar
    22    17    18   ar
    23     5     6   ar
    24     6     7   ar
    25     7     8    1
    26    28    29    1
    27    29    30    1
    28    30    24    1
    29     7     1   ar
    30    18    14   ar
    31    19    20    1
    32    12    13    1
@<TRIPOS>MOLECULE
*****
 30 32 0 0 0
SMALL
GASTEIGER

@<TRIPOS>ATOM
      1 C          63.2455   89.8139   12.4053 C.ar    1  UNL1        0.0577
      2 C          63.8358   88.7577   13.2918 C.ar    1  UNL1        0.0462
      3 C          63.5600   87.3088   13.0183 C.ar    1  UNL1        0.1602
      4 F          64.1502   86.2526   13.9048 F       1  UNL1       -0.2027
      5 C          62.6939   86.9162   11.8582 C.ar    1  UNL1        0.1534
      6 C          62.1037   87.9725   10.9716 C.ar    1  UNL1        0.0351
      7 C          62.3795   89.4213   11.2452 C.ar    1  UNL1        0.0722
      8 CL         61.7892   90.4776   10.3587 Cl      1  UNL1       -0.0809
      9 S          62.4181   85.4674   11.5846 S.O2    1  UNL1        0.0772
     10 O          62.8310   85.6587   10.1553 O.2     1  UNL1       -0.1498
     11 O          62.0052   85.2761   13.0139 O.2     1  UNL1       -0.1498
     12 N          62.1423   84.0186   11.3110 N.pl3   1  UNL1       -0.1936
     13 H          61.5571   83.7618   10.5621 H       1  UNL1        0.1758
     14 C          62.7580   82.9611   12.1786 C.ar    1  UNL1        0.1786
     15 N          62.0134   81.9555   13.0057 N.ar    1  UNL1       -0.2214
     16 C          63.0216   81.0964   13.7095 C.ar    1  UNL1        0.1079
     17 C          64.3895   81.5711   13.3174 C.ar    1  UNL1        0.0588
     18 S          64.2265   82.7235   12.3712 S.2     1  UNL1       -0.0497
     19 N          63.5213   91.2628   12.6789 N.pl3   1  UNL1       -0.3319
     20 H          62.9434   91.9565   12.2864 H       1  UNL1        0.1468
     21 C          64.6777   91.6546   13.5503 C.3     1  UNL1        0.0870
     22 C          66.0586   91.7390   12.9709 C.3     1  UNL1        0.0213
     23 O          67.5994   95.0200    8.5320 O.2     1  UNL1       -0.1730
     24 S          67.0265   94.8951    9.9127 S.O2    1  UNL1       -0.0100
     25 O          66.9479   96.3821    9.7316 O.2     1  UNL1       -0.1730
     26 C          66.4264   95.2866   11.2305 C.3     1  UNL1        0.1508
     27 C          66.1037   94.2346   12.2499 C.3     1  UNL1        0.0254
     28 C          66.3812   92.7911   11.9515 C.3     1  UNL1        0.0052
     29 C          66.9814   92.3995   10.6338 C.3     1  UNL1        0.0254
     30 C          67.3040   93.4516    9.6144 C.3     1  UNL1        0.1508
@<TRIPOS>BOND
     1    23    24    2
     2    24    25    2
     3    24    26    1
     4    26    27    1
     5    27    28    1
     6    28    22    1
     7    22    21    1
     8    21    19    1
     9    19     1    1
    10     1     2   ar
    11     2     3   ar
    12     3     4    1
    13     3     5   ar
    14     5     9    1
    15     9    10    2
    16     9    11    2
    17     9    12    1
    18    12    14    1
    19    14    15   ar
    20    15    16   ar
    21    16    17   ar
    22    17    18   ar
    23     5     6   ar
    24     6     7   ar
    25     7     8    1
    26    28    29    1
    27    29    30    1
    28    30    24    1
    29     7     1   ar
    30    18    14   ar
    31    19    20    1
    32    12    13    1
@<TRIPOS>MOLECULE
*****
 30 32 0 0 0
SMALL
GASTEIGER

@<TRIPOS>ATOM
      1 C          63.1726   90.0489   11.7686 C.ar    1  UNL1        0.0577
      2 C          62.4297   89.5892   10.5493 C.ar    1  UNL1        0.0462
      3 C          62.1311   88.1317   10.3579 C.ar    1  UNL1        0.1602
      4 F          61.3883   87.6721    9.1386 F       1  UNL1       -0.2027
      5 C          62.5755   87.1339   11.3859 C.ar    1  UNL1        0.1534
      6 C          63.3185   87.5936   12.6053 C.ar    1  UNL1        0.0351
      7 C          63.6170   89.0510   12.7966 C.ar    1  UNL1        0.0722
      8 CL         64.3599   89.5107   14.0160 Cl      1  UNL1       -0.0809
      9 S          62.2770   85.6764   11.1946 S.O2    1  UNL1        0.0772
     10 O          62.6916   85.7802    9.7568 O.2     1  UNL1       -0.1498
     11 O          61.8625   85.5726   12.6324 O.2     1  UNL1       -0.1498
     12 N          61.9785   84.2189   11.0033 N.pl3   1  UNL1       -0.1936
     13 H          61.2648   83.9396   10.3855 H       1  UNL1        0.1758
     14 C          62.7676   83.1870   11.7534 C.ar    1  UNL1        0.1786
     15 N          62.2013   82.1085   12.6286 N.ar    1  UNL1       -0.2214
     16 C          63.3452   81.3073   13.1760 C.ar    1  UNL1        0.1079
     17 C          64.6186   81.8907   12.6391 C.ar    1  UNL1        0.0588
     18 S          64.2616   83.0524   11.7599 S.2     1  UNL1       -0.0497
     19 N          63.4711   91.5064   11.9599 N.pl3   1  UNL1       -0.3319
     20 H          63.2108   91.9566   12.7959 H       1  UNL1        0.1468
     21 C          64.1663   92.2780   10.8776 C.3     1  UNL1        0.0870
     22 C          65.6500   92.4886   10.9414 C.3     1  UNL1        0.0213
     23 O          67.8732   94.0404   15.9902 O.2     1  UNL1       -0.1730
     24 S          67.6806   93.0030   14.9241 S.O2    1  UNL1       -0.0100
     25 O          68.5250   92.2282   15.8920 O.2     1  UNL1       -0.1730
     26 C          67.7812   91.6965   14.1941 C.3     1  UNL1        0.1508
     27 C          67.1043   91.5250   12.8666 C.3     1  UNL1        0.0254
     28 C          66.3269   92.6600   12.2689 C.3     1  UNL1        0.0052
     29 C          66.2263   93.9665   12.9989 C.3     1  UNL1        0.0254
     30 C          66.9031   94.1380   14.3265 C.3     1  UNL1        0.1508
@<TRIPOS>BOND
     1    23    24    2
     2    24    25    2
     3    24    26    1
     4    26    27    1
     5    27    28    1
     6    28    22    1
     7    22    21    1
     8    21    19    1
     9    19     1    1
    10     1     2   ar
    11     2     3   ar
    12     3     4    1
    13     3     5   ar
    14     5     9    1
    15     9    10    2
    16     9    11    2
    17     9    12    1
    18    12    14    1
    19    14    15   ar
    20    15    16   ar
    21    16    17   ar
    22    17    18   ar
    23     5     6   ar
    24     6     7   ar
    25     7     8    1
    26    28    29    1
    27    29    30    1
    28    30    24    1
    29     7     1   ar
    30    18    14   ar
    31    19    20    1
    32    12    13    1
