@<TRIPOS>MOLECULE
*****
 21 23 0 0 0
SMALL
GASTEIGER

@<TRIPOS>ATOM
      1 C          66.8003   92.9332   14.3734 C.ar    1  UNL1        0.1387
      2 C          66.5105   93.6598   13.0936 C.ar    1  UNL1        0.0369
      3 C          65.5201   93.0957   12.1185 C.ar    1  UNL1        0.0031
      4 C          64.8193   91.8050   12.4233 C.ar    1  UNL1        0.0002
      5 C          63.8288   91.2409   11.4482 C.ar    1  UNL1        0.0001
      6 C          63.1280   89.9502   11.7530 C.ar    1  UNL1        0.0015
      7 C          63.4177   89.2235   13.0329 C.ar    1  UNL1        0.0000
      8 C          64.4082   89.7876   14.0079 C.ar    1  UNL1        0.0001
      9 C          65.1090   91.0784   13.7031 C.ar    1  UNL1        0.0030
     10 C          66.0995   91.6425   14.6782 C.ar    1  UNL1        0.0369
     11 C          62.1375   89.3862   10.7779 C.ar    1  UNL1        0.0193
     12 C          60.8889   90.1503   10.4505 C.ar    1  UNL1        0.0988
     13 N          59.8984   89.5862    9.4754 N.ar    1  UNL1       -0.2422
     14 C          60.1566   88.2580    8.8278 C.ar    1  UNL1        0.1017
     15 C          61.4051   87.4940    9.1552 C.ar    1  UNL1        0.0539
     16 C          62.3956   88.0580   10.1303 C.ar    1  UNL1        0.0059
     17 C          61.6632   86.1659    8.5076 C.2     1  UNL1        0.1750
     18 C          62.8835   85.3757    8.8772 C.3     1  UNL1        0.0773
     19 O          60.7010   85.6278    7.4903 O.2     1  UNL1       -0.2913
     20 C          68.7568   92.5872   16.0473 C.3     1  UNL1        0.2525
     21 O          67.7907   93.4972   15.3485 O.3     1  UNL1       -0.4714
@<TRIPOS>BOND
     1    20    21    1
     2    21     1    1
     3     1     2   ar
     4     2     3   ar
     5     3     4   ar
     6     4     5   ar
     7     5     6   ar
     8     6    11    1
     9    11    12   ar
    10    12    13   ar
    11    13    14   ar
    12    14    15   ar
    13    15    17    1
    14    17    18    1
    15    17    19    2
    16    15    16   ar
    17     6     7   ar
    18     7     8   ar
    19     8     9   ar
    20     9    10   ar
    21    10     1   ar
    22     9     4   ar
    23    16    11   ar
@<TRIPOS>MOLECULE
*****
 21 23 0 0 0
SMALL
GASTEIGER

@<TRIPOS>ATOM
      1 C          61.2614   86.7202    9.5844 C.ar    1  UNL1        0.1387
      2 C          61.7212   85.9475   10.7850 C.ar    1  UNL1        0.0369
      3 C          62.4644   86.6444   11.8859 C.ar    1  UNL1        0.0031
      4 C          62.7478   88.1140   11.7862 C.ar    1  UNL1        0.0002
      5 C          63.4911   88.8108   12.8871 C.ar    1  UNL1        0.0001
      6 C          63.7745   90.2804   12.7874 C.ar    1  UNL1        0.0015
      7 C          63.3146   91.0532   11.5867 C.ar    1  UNL1        0.0000
      8 C          62.5714   90.3563   10.4859 C.ar    1  UNL1        0.0001
      9 C          62.2880   88.8867   10.5856 C.ar    1  UNL1        0.0030
     10 C          61.5448   88.1898    9.4847 C.ar    1  UNL1        0.0369
     11 C          64.5177   90.9773   13.8883 C.ar    1  UNL1        0.0193
     12 C          63.8320   91.2649   15.1911 C.ar    1  UNL1        0.0988
     13 N          64.5752   91.9618   16.2920 N.ar    1  UNL1       -0.2422
     14 C          66.0042   92.3710   16.0901 C.ar    1  UNL1        0.1017
     15 C          66.6898   92.0835   14.7873 C.ar    1  UNL1        0.0539
     16 C          65.9466   91.3866   13.6864 C.ar    1  UNL1        0.0059
     17 C          68.1187   92.4927   14.5855 C.2     1  UNL1        0.1750
     18 C          68.8268   93.2897   15.6407 C.3     1  UNL1        0.0773
     19 O          68.8395   92.1051   13.3284 O.2     1  UNL1       -0.2913
     20 C          59.3576   86.7003    7.8166 C.3     1  UNL1        0.2525
     21 O          60.5181   86.0234    8.4835 O.3     1  UNL1       -0.4714
@<TRIPOS>BOND
     1    20    21    1
     2    21     1    1
     3     1     2   ar
     4     2     3   ar
     5     3     4   ar
     6     4     5   ar
     7     5     6   ar
     8     6    11    1
     9    11    12   ar
    10    12    13   ar
    11    13    14   ar
    12    14    15   ar
    13    15    17    1
    14    17    18    1
    15    17    19    2
    16    15    16   ar
    17     6     7   ar
    18     7     8   ar
    19     8     9   ar
    20     9    10   ar
    21    10     1   ar
    22     9     4   ar
    23    16    11   ar
@<TRIPOS>MOLECULE
*****
 21 23 0 0 0
SMALL
GASTEIGER

@<TRIPOS>ATOM
      1 C          59.5123   88.6936    7.5419 C.ar    1  UNL1        0.1387
      2 C          59.2624   87.2180    7.4417 C.ar    1  UNL1        0.0369
      3 C          59.9114   86.2796    8.4155 C.ar    1  UNL1        0.0031
      4 C          60.8103   86.8168    9.4894 C.ar    1  UNL1        0.0002
      5 C          61.4593   85.8784   10.4631 C.ar    1  UNL1        0.0001
      6 C          62.3583   86.4156   11.5370 C.ar    1  UNL1        0.0015
      7 C          62.6082   87.8913   11.6372 C.ar    1  UNL1        0.0000
      8 C          61.9592   88.8297   10.6635 C.ar    1  UNL1        0.0001
      9 C          61.0603   88.2924    9.5895 C.ar    1  UNL1        0.0030
     10 C          60.4113   89.2308    8.6158 C.ar    1  UNL1        0.0369
     11 C          63.0073   85.4772   12.5108 C.ar    1  UNL1        0.0193
     12 C          63.7757   86.0214   13.6784 C.ar    1  UNL1        0.0988
     13 N          64.4247   85.0830   14.6522 N.ar    1  UNL1       -0.2422
     14 C          64.3053   83.6003   14.4583 C.ar    1  UNL1        0.1017
     15 C          63.5369   83.0562   13.2906 C.ar    1  UNL1        0.0539
     16 C          62.8879   83.9946   12.3169 C.ar    1  UNL1        0.0059
     17 C          63.4175   81.5736   13.0967 C.2     1  UNL1        0.1750
     18 C          62.8972   81.0261   11.8007 C.3     1  UNL1        0.0773
     19 O          63.8184   80.6383   14.1989 O.2     1  UNL1       -0.2913
     20 C          59.7017   90.3777    5.5727 C.3     1  UNL1        0.2525
     21 O          58.8633   89.6321    6.5681 O.3     1  UNL1       -0.4714
@<TRIPOS>BOND
     1    20    21    1
     2    21     1    1
     3     1     2   ar
     4     2     3   ar
     5     3     4   ar
     6     4     5   ar
     7     5     6   ar
     8     6    11    1
     9    11    12   ar
    10    12    13   ar
    11    13    14   ar
    12    14    15   ar
    13    15    17    1
    14    17    18    1
    15    17    19    2
    16    15    16   ar
    17     6     7   ar
    18     7     8   ar
    19     8     9   ar
    20     9    10   ar
    21    10     1   ar
    22     9     4   ar
    23    16    11   ar
@<TRIPOS>MOLECULE
*****
 21 23 0 0 0
SMALL
GASTEIGER

@<TRIPOS>ATOM
      1 C          63.2124   83.4666   12.5139 C.ar    1  UNL1        0.1387
      2 C          63.8961   83.4040   13.8475 C.ar    1  UNL1        0.0369
      3 C          64.2656   84.6706   14.5611 C.ar    1  UNL1        0.0031
      4 C          63.9513   85.9998   13.9411 C.ar    1  UNL1        0.0002
      5 C          64.3207   87.2664   14.6548 C.ar    1  UNL1        0.0001
      6 C          64.0064   88.5956   14.0348 C.ar    1  UNL1        0.0015
      7 C          63.3226   88.6582   12.7011 C.ar    1  UNL1        0.0000
      8 C          62.9531   87.3916   11.9875 C.ar    1  UNL1        0.0001
      9 C          63.2675   86.0624   12.6075 C.ar    1  UNL1        0.0030
     10 C          62.8981   84.7958   11.8939 C.ar    1  UNL1        0.0369
     11 C          64.3758   89.8622   14.7484 C.ar    1  UNL1        0.0193
     12 C          63.5257   90.3613   15.8791 C.ar    1  UNL1        0.0988
     13 N          63.8952   91.6279   16.5927 N.ar    1  UNL1       -0.2422
     14 C          65.1147   92.3954   16.1757 C.ar    1  UNL1        0.1017
     15 C          65.9647   91.8962   15.0450 C.ar    1  UNL1        0.0539
     16 C          65.5952   90.6296   14.3314 C.ar    1  UNL1        0.0059
     17 C          67.1841   92.6637   14.6281 C.2     1  UNL1        0.1750
     18 C          68.4521   92.5455   15.4207 C.3     1  UNL1        0.0773
     19 O          67.1356   93.5494   13.4184 O.2     1  UNL1       -0.2913
     20 C          62.8806   80.8899   12.5297 C.3     1  UNL1        0.2525
     21 O          62.8430   82.2000   11.8003 O.3     1  UNL1       -0.4714
@<TRIPOS>BOND
     1    20    21    1
     2    21     1    1
     3     1     2   ar
     4     2     3   ar
     5     3     4   ar
     6     4     5   ar
     7     5     6   ar
     8     6    11    1
     9    11    12   ar
    10    12    13   ar
    11    13    14   ar
    12    14    15   ar
    13    15    17    1
    14    17    18    1
    15    17    19    2
    16    15    16   ar
    17     6     7   ar
    18     7     8   ar
    19     8     9   ar
    20     9    10   ar
    21    10     1   ar
    22     9     4   ar
    23    16    11   ar
@<TRIPOS>MOLECULE
*****
 21 23 0 0 0
SMALL
GASTEIGER

@<TRIPOS>ATOM
      1 C          66.2012   94.4431   11.1248 C.ar    1  UNL1        0.1387
      2 C          65.4445   93.4486   10.2951 C.ar    1  UNL1        0.0369
      3 C          64.8960   92.2052   10.9299 C.ar    1  UNL1        0.0031
      4 C          65.1042   91.9562   12.3943 C.ar    1  UNL1        0.0002
      5 C          64.5557   90.7127   13.0291 C.ar    1  UNL1        0.0001
      6 C          64.7638   90.4637   14.4935 C.ar    1  UNL1        0.0015
      7 C          65.5206   91.4583   15.3233 C.ar    1  UNL1        0.0000
      8 C          66.0691   92.7017   14.6885 C.ar    1  UNL1        0.0001
      9 C          65.8608   92.9507   13.2240 C.ar    1  UNL1        0.0030
     10 C          66.4093   94.1941   12.5892 C.ar    1  UNL1        0.0369
     11 C          64.2153   89.2203   15.1283 C.ar    1  UNL1        0.0193
     12 C          63.3321   89.3219   16.3365 C.ar    1  UNL1        0.0988
     13 N          62.7836   88.0785   16.9713 N.ar    1  UNL1       -0.2422
     14 C          63.1183   86.7333   16.3979 C.ar    1  UNL1        0.1017
     15 C          64.0015   86.6318   15.1897 C.ar    1  UNL1        0.0539
     16 C          64.5500   87.8752   14.5549 C.ar    1  UNL1        0.0059
     17 C          64.3361   85.2867   14.6163 C.2     1  UNL1        0.1750
     18 C          63.2411   84.3887   14.1217 C.3     1  UNL1        0.0773
     19 O          65.7658   84.8396   14.5375 O.2     1  UNL1       -0.2913
     20 C          67.2900   95.6391    9.0915 C.3     1  UNL1        0.2525
     21 O          66.7497   95.6866   10.4900 O.3     1  UNL1       -0.4714
@<TRIPOS>BOND
     1    20    21    1
     2    21     1    1
     3     1     2   ar
     4     2     3   ar
     5     3     4   ar
     6     4     5   ar
     7     5     6   ar
     8     6    11    1
     9    11    12   ar
    10    12    13   ar
    11    13    14   ar
    12    14    15   ar
    13    15    17    1
    14    17    18    1
    15    17    19    2
    16    15    16   ar
    17     6     7   ar
    18     7     8   ar
    19     8     9   ar
    20     9    10   ar
    21    10     1   ar
    22     9     4   ar
    23    16    11   ar
@<TRIPOS>MOLECULE
*****
 21 23 0 0 0
SMALL
GASTEIGER

@<TRIPOS>ATOM
      1 C          66.3695   93.0850   14.2080 C.ar    1  UNL1        0.1387
      2 C          65.9736   93.4657   12.8122 C.ar    1  UNL1        0.0369
      3 C          65.1262   92.5375   11.9934 C.ar    1  UNL1        0.0031
      4 C          64.6747   91.2287   12.5704 C.ar    1  UNL1        0.0002
      5 C          63.8272   90.3005   11.7516 C.ar    1  UNL1        0.0001
      6 C          63.3757   88.9917   12.3286 C.ar    1  UNL1        0.0015
      7 C          63.7716   88.6109   13.7245 C.ar    1  UNL1        0.0000
      8 C          64.6190   89.5391   14.5433 C.ar    1  UNL1        0.0001
      9 C          65.0705   90.8480   13.9662 C.ar    1  UNL1        0.0030
     10 C          65.9179   91.7761   14.7850 C.ar    1  UNL1        0.0369
     11 C          62.5283   88.0635   11.5099 C.ar    1  UNL1        0.0193
     12 C          62.5172   86.5944   11.8127 C.ar    1  UNL1        0.0988
     13 N          61.6698   85.6663   10.9939 N.ar    1  UNL1       -0.2422
     14 C          60.8334   86.2072    9.8723 C.ar    1  UNL1        0.1017
     15 C          60.8446   87.6763    9.5695 C.ar    1  UNL1        0.0539
     16 C          61.6920   88.6044   10.3883 C.ar    1  UNL1        0.0059
     17 C          60.0083   88.2172    8.4479 C.2     1  UNL1        0.1750
     18 C          59.0737   87.3098    7.7041 C.3     1  UNL1        0.0773
     19 O          60.1066   89.6655    8.0700 O.2     1  UNL1       -0.2913
     20 C          68.4523   93.4992   15.7047 C.3     1  UNL1        0.2525
     21 O          67.2169   94.0131   15.0268 O.3     1  UNL1       -0.4714
@<TRIPOS>BOND
     1    20    21    1
     2    21     1    1
     3     1     2   ar
     4     2     3   ar
     5     3     4   ar
     6     4     5   ar
     7     5     6   ar
     8     6    11    1
     9    11    12   ar
    10    12    13   ar
    11    13    14   ar
    12    14    15   ar
    13    15    17    1
    14    17    18    1
    15    17    19    2
    16    15    16   ar
    17     6     7   ar
    18     7     8   ar
    19     8     9   ar
    20     9    10   ar
    21    10     1   ar
    22     9     4   ar
    23    16    11   ar
@<TRIPOS>MOLECULE
*****
 21 23 0 0 0
SMALL
GASTEIGER

@<TRIPOS>ATOM
      1 C          60.9125   87.0774    9.8460 C.ar    1  UNL1        0.1387
      2 C          61.5860   86.5963   11.0970 C.ar    1  UNL1        0.0369
      3 C          62.5217   87.5023   11.8410 C.ar    1  UNL1        0.0031
      4 C          62.7839   88.8895   11.3341 C.ar    1  UNL1        0.0002
      5 C          63.7196   89.7955   12.0781 C.ar    1  UNL1        0.0001
      6 C          63.9818   91.1827   11.5712 C.ar    1  UNL1        0.0015
      7 C          63.3082   91.6638   10.3201 C.ar    1  UNL1        0.0000
      8 C          62.3726   90.7578    9.5761 C.ar    1  UNL1        0.0001
      9 C          62.1104   89.3706   10.0831 C.ar    1  UNL1        0.0030
     10 C          61.1747   88.4645    9.3391 C.ar    1  UNL1        0.0369
     11 C          64.9174   92.0887   12.3152 C.ar    1  UNL1        0.0193
     12 C          65.5694   93.2389   11.6066 C.ar    1  UNL1        0.0988
     13 N          66.5051   94.1450   12.3506 N.ar    1  UNL1       -0.2422
     14 C          66.7888   93.9008   13.8032 C.ar    1  UNL1        0.1017
     15 C          66.1369   92.7506   14.5117 C.ar    1  UNL1        0.0539
     16 C          65.2012   91.8446   13.7677 C.ar    1  UNL1        0.0059
     17 C          66.4206   92.5065   15.9642 C.2     1  UNL1        0.1750
     18 C          67.8220   92.2224   16.4172 C.3     1  UNL1        0.0773
     19 O          65.3028   92.5465   16.9638 O.2     1  UNL1       -0.2913
     20 C          59.3698   86.6207    7.8061 C.3     1  UNL1        0.2525
     21 O          59.9768   86.1713    9.1020 O.3     1  UNL1       -0.4714
@<TRIPOS>BOND
     1    20    21    1
     2    21     1    1
     3     1     2   ar
     4     2     3   ar
     5     3     4   ar
     6     4     5   ar
     7     5     6   ar
     8     6    11    1
     9    11    12   ar
    10    12    13   ar
    11    13    14   ar
    12    14    15   ar
    13    15    17    1
    14    17    18    1
    15    17    19    2
    16    15    16   ar
    17     6     7   ar
    18     7     8   ar
    19     8     9   ar
    20     9    10   ar
    21    10     1   ar
    22     9     4   ar
    23    16    11   ar
@<TRIPOS>MOLECULE
*****
 21 23 0 0 0
SMALL
GASTEIGER

@<TRIPOS>ATOM
      1 C          64.2309   91.1951   12.8827 C.ar    1  UNL1        0.1387
      2 C          63.5177   90.7023   11.6587 C.ar    1  UNL1        0.0369
      3 C          63.1477   89.2536   11.5384 C.ar    1  UNL1        0.0031
      4 C          63.4910   88.2977   12.6422 C.ar    1  UNL1        0.0002
      5 C          63.1210   86.8491   12.5219 C.ar    1  UNL1        0.0001
      6 C          63.4642   85.8932   13.6257 C.ar    1  UNL1        0.0015
      7 C          64.1775   86.3859   14.8498 C.ar    1  UNL1        0.0000
      8 C          64.5475   87.8346   14.9701 C.ar    1  UNL1        0.0001
      9 C          64.2042   88.7905   13.8662 C.ar    1  UNL1        0.0030
     10 C          64.5742   90.2392   13.9865 C.ar    1  UNL1        0.0369
     11 C          63.0942   84.4445   13.5054 C.ar    1  UNL1        0.0193
     12 C          62.3891   83.7542   14.6352 C.ar    1  UNL1        0.0988
     13 N          62.0191   82.3055   14.5149 N.ar    1  UNL1       -0.2422
     14 C          62.3543   81.5472   13.2648 C.ar    1  UNL1        0.1017
     15 C          63.0593   82.2375   12.1351 C.ar    1  UNL1        0.0539
     16 C          63.4293   83.6861   12.2554 C.ar    1  UNL1        0.0059
     17 C          63.3944   81.4791   10.8851 C.2     1  UNL1        0.1750
     18 C          62.7745   80.1366   10.6334 C.3     1  UNL1        0.0773
     19 O          64.3495   82.0632    9.8867 O.2     1  UNL1       -0.2913
     20 C          65.9343   93.1208   12.5087 C.3     1  UNL1        0.2525
     21 O          64.6009   92.6437   13.0030 O.3     1  UNL1       -0.4714
@<TRIPOS>BOND
     1    20    21    1
     2    21     1    1
     3     1     2   ar
     4     2     3   ar
     5     3     4   ar
     6     4     5   ar
     7     5     6   ar
     8     6    11    1
     9    11    12   ar
    10    12    13   ar
    11    13    14   ar
    12    14    15   ar
    13    15    17    1
    14    17    18    1
    15    17    19    2
    16    15    16   ar
    17     6     7   ar
    18     7     8   ar
    19     8     9   ar
    20     9    10   ar
    21    10     1   ar
    22     9     4   ar
    23    16    11   ar
@<TRIPOS>MOLECULE
*****
 21 23 0 0 0
SMALL
GASTEIGER

@<TRIPOS>ATOM
      1 C          62.9831   81.7754   12.8705 C.ar    1  UNL1        0.1387
      2 C          63.7241   82.3463   14.0430 C.ar    1  UNL1        0.0369
      3 C          63.9203   83.8291   14.1564 C.ar    1  UNL1        0.0031
      4 C          63.3755   84.7409   13.0973 C.ar    1  UNL1        0.0002
      5 C          63.5717   86.2237   13.2107 C.ar    1  UNL1        0.0001
      6 C          63.0269   87.1355   12.1516 C.ar    1  UNL1        0.0015
      7 C          62.2859   86.5645   10.9789 C.ar    1  UNL1        0.0000
      8 C          62.0897   85.0817   10.8655 C.ar    1  UNL1        0.0001
      9 C          62.6345   84.1699   11.9247 C.ar    1  UNL1        0.0030
     10 C          62.4383   82.6872   11.8113 C.ar    1  UNL1        0.0369
     11 C          63.2231   88.6183   12.2650 C.ar    1  UNL1        0.0193
     12 C          62.7607   89.5226   11.1611 C.ar    1  UNL1        0.0988
     13 N          62.9569   91.0054   11.2746 N.ar    1  UNL1       -0.2422
     14 C          63.6155   91.5838   12.4918 C.ar    1  UNL1        0.1017
     15 C          64.0779   90.6795   13.5956 C.ar    1  UNL1        0.0539
     16 C          63.8817   89.1967   13.4822 C.ar    1  UNL1        0.0059
     17 C          64.7365   91.2580   14.8128 C.2     1  UNL1        0.1750
     18 C          66.2261   91.4307   14.8489 C.3     1  UNL1        0.0773
     19 O          63.9056   91.6638   15.9938 O.2     1  UNL1       -0.2913
     20 C          61.9083   79.5750   13.7384 C.3     1  UNL1        0.2525
     21 O          62.7869   80.2926   12.7570 O.3     1  UNL1       -0.4714
@<TRIPOS>BOND
     1    20    21    1
     2    21     1    1
     3     1     2   ar
     4     2     3   ar
     5     3     4   ar
     6     4     5   ar
     7     5     6   ar
     8     6    11    1
     9    11    12   ar
    10    12    13   ar
    11    13    14   ar
    12    14    15   ar
    13    15    17    1
    14    17    18    1
    15    17    19    2
    16    15    16   ar
    17     6     7   ar
    18     7     8   ar
    19     8     9   ar
    20     9    10   ar
    21    10     1   ar
    22     9     4   ar
    23    16    11   ar
