@<TRIPOS>MOLECULE
*****
 33 35 0 0 0
SMALL
GASTEIGER

@<TRIPOS>ATOM
      1 C          63.9064   90.4596   13.5144 C.3     1  UNL1        0.1932
      2 O          63.9269   91.9513   13.3582 O.3     1  UNL1       -0.3755
      3 H          64.5633   92.3330   13.9829 H       1  UNL1        0.2110
      4 C          62.8698   90.3608   12.4347 C.ar    1  UNL1        0.0368
      5 C          61.5040   89.8287   12.7528 C.ar    1  UNL1        0.0028
      6 C          60.4674   89.7299   11.6731 C.ar    1  UNL1        0.0295
      7 C          60.7967   90.1632   10.2753 C.ar    1  UNL1        0.1424
      8 F          59.7601   90.0645    9.1957 F       1  UNL1       -0.2041
      9 C          62.1625   90.6954    9.9573 C.ar    1  UNL1        0.0590
     10 C          63.1991   90.7942   11.0370 C.ar    1  UNL1        0.1408
     11 F          64.5650   91.3263   10.7188 F       1  UNL1       -0.2043
     12 C          63.8859   88.9679   13.6705 C.3     1  UNL1        0.3254
     13 F          63.8761   88.4554   12.2608 F       1  UNL1       -0.1949
     14 F          63.8910   89.1240   15.1624 F       1  UNL1       -0.1949
     15 C          63.8245   84.4927   14.1390 C.ar    1  UNL1        0.0194
     16 C          64.5151   85.3445   15.1624 C.ar    1  UNL1        0.0029
     17 C          64.5356   86.8362   15.0062 C.ar    1  UNL1        0.0202
     18 C          63.8654   87.4762   13.8267 C.ar    1  UNL1        0.1218
     19 N          63.1748   86.6243   12.8033 N.ar    1  UNL1       -0.2427
     20 C          63.1543   85.1326   12.9595 C.ar    1  UNL1        0.0986
     21 C          62.6201   82.2132   13.8180 C.2     1  UNL1        0.0819
     22 C          63.8040   83.0010   14.2951 C.2     1  UNL1        0.0082
     23 C          62.5996   80.7215   13.9741 C.2     1  UNL1        0.3414
     24 O          63.8531   79.9897   14.3527 O.2     1  UNL1       -0.2449
     25 O          61.3256   79.9615   13.7516 O.3     1  UNL1       -0.4454
     26 C          58.8482   79.6802   14.4817 C.3     1  UNL1        0.0513
     27 C          60.0122   80.5664   14.1503 C.3     1  UNL1        0.2089
     28 C          64.9430   90.5583   14.5941 C.3     1  UNL1        0.1679
     29 N          65.9861   91.6347   14.5361 N.ar    1  UNL1       -0.2078
     30 C          67.3160   91.5377   13.8491 C.ar    1  UNL1        0.2216
     31 N          68.0343   92.8402   14.0434 N.ar    1  UNL1       -0.1048
     32 N          67.1482   93.7422   14.8506 N.ar    1  UNL1       -0.0226
     33 N          65.8824   92.9972   15.1551 N.ar    1  UNL1       -0.0428
@<TRIPOS>BOND
     1    26    27    1
     2    27    25    1
     3    25    23    1
     4    23    24    2
     5    23    21    1
     6    21    22    2
     7    22    15    1
     8    15    16   ar
     9    16    17   ar
    10    17    18   ar
    11    18    12    1
    12    12    13    1
    13    12    14    1
    14    12     1    1
    15     1     2    1
    16     1    28    1
    17    28    29    1
    18    29    30   ar
    19    30    31   ar
    20    31    32   ar
    21    32    33   ar
    22     1     4    1
    23     4     5   ar
    24     5     6   ar
    25     6     7   ar
    26     7     8    1
    27     7     9   ar
    28     9    10   ar
    29    10    11    1
    30    18    19   ar
    31    19    20   ar
    32    20    15   ar
    33    33    29   ar
    34    10     4   ar
    35     2     3    1
@<TRIPOS>MOLECULE
*****
 33 35 0 0 0
SMALL
GASTEIGER

@<TRIPOS>ATOM
      1 C          66.4793   92.3906   12.9659 C.3     1  UNL1        0.1932
      2 O          67.7098   92.9582   13.6092 O.3     1  UNL1       -0.3755
      3 H          67.8659   92.5133   14.4569 H       1  UNL1        0.2110
      4 C          66.6582   93.3209   11.8029 C.ar    1  UNL1        0.0368
      5 C          66.1668   94.7353   11.8914 C.ar    1  UNL1        0.0028
      6 C          66.3456   95.6656   10.7285 C.ar    1  UNL1        0.0295
      7 C          67.0159   95.1815    9.4770 C.ar    1  UNL1        0.1424
      8 F          67.1948   96.1118    8.3140 F       1  UNL1       -0.2041
      9 C          67.5073   93.7671    9.3884 C.ar    1  UNL1        0.0590
     10 C          67.3284   92.8368   10.5514 C.ar    1  UNL1        0.1408
     11 F          67.8198   91.4223   10.4628 F       1  UNL1       -0.2043
     12 C          65.2488   91.8230   12.3226 C.3     1  UNL1        0.3254
     13 F          64.7054   92.9615   11.5111 F       1  UNL1       -0.1949
     14 F          65.5019   90.5081   12.9986 F       1  UNL1       -0.1949
     15 C          61.5574   90.1203   10.3928 C.ar    1  UNL1        0.0194
     16 C          62.4864   90.9892    9.5980 C.ar    1  UNL1        0.0029
     17 C          63.7169   91.5568   10.2412 C.ar    1  UNL1        0.0202
     18 C          64.0183   91.2555   11.6794 C.ar    1  UNL1        0.1218
     19 N          63.0893   90.3866   12.4743 N.ar    1  UNL1       -0.2427
     20 C          61.8588   89.8191   11.8310 C.ar    1  UNL1        0.0986
     21 C          60.4343   88.8089    8.4515 C.2     1  UNL1        0.0819
     22 C          60.3269   89.5528    9.7496 C.2     1  UNL1        0.0082
     23 C          59.2038   88.2414    7.8082 C.2     1  UNL1        0.3414
     24 O          58.6750   86.9081    8.2473 O.2     1  UNL1       -0.2449
     25 O          58.5022   89.0071    6.7259 O.3     1  UNL1       -0.4454
     26 C          58.4983   91.1873    5.3129 C.3     1  UNL1        0.0513
     27 C          59.2446   90.0482    5.9418 C.3     1  UNL1        0.2089
     28 C          66.3004   91.4603   14.1289 C.3     1  UNL1        0.1679
     29 N          65.4032   91.8465   15.2672 N.ar    1  UNL1       -0.2078
     30 C          65.7925   92.6767   16.4543 C.ar    1  UNL1        0.2216
     31 N          64.5889   92.8136   17.3391 N.ar    1  UNL1       -0.1048
     32 N          63.4557   92.0680   16.6987 N.ar    1  UNL1       -0.0226
     33 N          63.9589   91.4703   15.4183 N.ar    1  UNL1       -0.0428
@<TRIPOS>BOND
     1    26    27    1
     2    27    25    1
     3    25    23    1
     4    23    24    2
     5    23    21    1
     6    21    22    2
     7    22    15    1
     8    15    16   ar
     9    16    17   ar
    10    17    18   ar
    11    18    12    1
    12    12    13    1
    13    12    14    1
    14    12     1    1
    15     1     2    1
    16     1    28    1
    17    28    29    1
    18    29    30   ar
    19    30    31   ar
    20    31    32   ar
    21    32    33   ar
    22     1     4    1
    23     4     5   ar
    24     5     6   ar
    25     6     7   ar
    26     7     8    1
    27     7     9   ar
    28     9    10   ar
    29    10    11    1
    30    18    19   ar
    31    19    20   ar
    32    20    15   ar
    33    33    29   ar
    34    10     4   ar
    35     2     3    1
@<TRIPOS>MOLECULE
*****
 33 35 0 0 0
SMALL
GASTEIGER

@<TRIPOS>ATOM
      1 C          63.6033   84.7464   13.2339 C.3     1  UNL1        0.1932
      2 O          64.4350   84.0564   14.2741 O.3     1  UNL1       -0.3755
      3 H          64.7129   84.6997   14.9449 H       1  UNL1        0.2110
      4 C          63.4416   83.4474   12.5015 C.ar    1  UNL1        0.0368
      5 C          64.1554   83.2257   11.2010 C.ar    1  UNL1        0.0028
      6 C          63.9937   81.9266   10.4687 C.ar    1  UNL1        0.0295
      7 C          63.1183   80.8493   11.0368 C.ar    1  UNL1        0.1424
      8 F          62.9566   79.5502   10.3044 F       1  UNL1       -0.2041
      9 C          62.4045   81.0710   12.3373 C.ar    1  UNL1        0.0590
     10 C          62.5661   82.3700   13.0696 C.ar    1  UNL1        0.1408
     11 F          61.8523   82.5917   14.3702 F       1  UNL1       -0.2043
     12 C          62.7716   85.4364   12.1936 C.3     1  UNL1        0.3254
     13 F          61.8621   84.3586   11.6824 F       1  UNL1       -0.1949
     14 F          63.5015   86.7193   12.4609 F       1  UNL1       -0.1949
     15 C          60.2765   87.5063    9.0727 C.ar    1  UNL1        0.0194
     16 C          61.2456   86.4351    8.6688 C.ar    1  UNL1        0.0029
     17 C          62.0773   85.7451    9.7091 C.ar    1  UNL1        0.0202
     18 C          61.9399   86.1264   11.1533 C.ar    1  UNL1        0.1218
     19 N          60.9708   87.1976   11.5572 N.ar    1  UNL1       -0.2427
     20 C          60.1390   87.8876   10.5169 C.ar    1  UNL1        0.0986
     21 C          60.0194   89.3398    7.2500 C.2     1  UNL1        0.0819
     22 C          59.4448   88.1963    8.0325 C.2     1  UNL1        0.0082
     23 C          59.1877   90.0297    6.2097 C.2     1  UNL1        0.3414
     24 O          57.6945   89.8882    6.2282 O.2     1  UNL1       -0.2449
     25 O          59.8492   90.8613    5.1509 O.3     1  UNL1       -0.4454
     26 C          59.7290   92.7690    3.3914 C.3     1  UNL1        0.0513
     27 C          59.1061   92.0009    4.5191 C.3     1  UNL1        0.2089
     28 C          63.7650   86.0454   13.9662 C.3     1  UNL1        0.1679
     29 N          63.2470   86.1863   15.3668 N.ar    1  UNL1       -0.2078
     30 C          63.5228   87.3294   16.2981 C.ar    1  UNL1        0.2216
     31 N          62.8085   87.0584   17.5891 N.ar    1  UNL1       -0.1048
     32 N          62.0911   85.7478   17.4555 N.ar    1  UNL1       -0.0226
     33 N          62.3621   85.2088   16.0822 N.ar    1  UNL1       -0.0428
@<TRIPOS>BOND
     1    26    27    1
     2    27    25    1
     3    25    23    1
     4    23    24    2
     5    23    21    1
     6    21    22    2
     7    22    15    1
     8    15    16   ar
     9    16    17   ar
    10    17    18   ar
    11    18    12    1
    12    12    13    1
    13    12    14    1
    14    12     1    1
    15     1     2    1
    16     1    28    1
    17    28    29    1
    18    29    30   ar
    19    30    31   ar
    20    31    32   ar
    21    32    33   ar
    22     1     4    1
    23     4     5   ar
    24     5     6   ar
    25     6     7   ar
    26     7     8    1
    27     7     9   ar
    28     9    10   ar
    29    10    11    1
    30    18    19   ar
    31    19    20   ar
    32    20    15   ar
    33    33    29   ar
    34    10     4   ar
    35     2     3    1
@<TRIPOS>MOLECULE
*****
 33 35 0 0 0
SMALL
GASTEIGER

@<TRIPOS>ATOM
      1 C          64.0525   84.2180   14.1631 C.3     1  UNL1        0.1932
      2 O          64.7953   83.6529   15.3374 O.3     1  UNL1       -0.3755
      3 H          65.0710   82.7444   15.1388 H       1  UNL1        0.2110
      4 C          63.8631   85.5085   14.9040 C.ar    1  UNL1        0.0368
      5 C          64.4841   86.7706   14.3830 C.ar    1  UNL1        0.0028
      6 C          64.2946   88.0610   15.1239 C.ar    1  UNL1        0.0295
      7 C          63.4842   88.0894   16.3858 C.ar    1  UNL1        0.1424
      8 F          63.2948   89.3798   17.1266 F       1  UNL1       -0.2041
      9 C          62.8632   86.8273   16.9067 C.ar    1  UNL1        0.0590
     10 C          63.0526   85.5368   16.1659 C.ar    1  UNL1        0.1408
     11 F          62.4316   84.2747   16.6869 F       1  UNL1       -0.2043
     12 C          63.3097   84.7832   12.9889 C.3     1  UNL1        0.3254
     13 F          61.9845   85.1923   13.5604 F       1  UNL1       -0.1949
     14 F          64.4901   84.5024   12.1070 F       1  UNL1       -0.1949
     15 C          61.0811   86.4785    9.4662 C.ar    1  UNL1        0.0194
     16 C          62.0898   85.3874    9.2611 C.ar    1  UNL1        0.0029
     17 C          62.8326   84.8223   10.4353 C.ar    1  UNL1        0.0202
     18 C          62.5668   85.3483   11.8147 C.ar    1  UNL1        0.1218
     19 N          61.5581   86.4393   12.0198 N.ar    1  UNL1       -0.2427
     20 C          60.8153   87.0044   10.8456 C.ar    1  UNL1        0.0986
     21 C          59.9732   88.4982    8.2649 C.2     1  UNL1        0.0819
     22 C          60.3383   87.0436    8.2920 C.2     1  UNL1        0.0082
     23 C          59.2304   89.0633    7.0906 C.2     1  UNL1        0.3414
     24 O          57.8476   88.5765    6.7730 O.2     1  UNL1       -0.2449
     25 O          59.8704   90.1153    6.2340 O.3     1  UNL1       -0.4454
     26 C          59.6620   92.0285    4.4886 C.3     1  UNL1        0.0513
     27 C          59.0198   90.9990    5.3704 C.3     1  UNL1        0.2089
     28 C          64.2419   82.9276   13.4223 C.3     1  UNL1        0.1679
     29 N          63.2269   81.8312   13.5540 N.ar    1  UNL1       -0.2078
     30 C          63.1833   80.5682   12.7459 C.ar    1  UNL1        0.2216
     31 N          62.0066   79.7616   13.2095 N.ar    1  UNL1       -0.1048
     32 N          61.3229   80.5261   14.3042 N.ar    1  UNL1       -0.0226
     33 N          62.0771   81.8051   14.5171 N.ar    1  UNL1       -0.0428
@<TRIPOS>BOND
     1    26    27    1
     2    27    25    1
     3    25    23    1
     4    23    24    2
     5    23    21    1
     6    21    22    2
     7    22    15    1
     8    15    16   ar
     9    16    17   ar
    10    17    18   ar
    11    18    12    1
    12    12    13    1
    13    12    14    1
    14    12     1    1
    15     1     2    1
    16     1    28    1
    17    28    29    1
    18    29    30   ar
    19    30    31   ar
    20    31    32   ar
    21    32    33   ar
    22     1     4    1
    23     4     5   ar
    24     5     6   ar
    25     6     7   ar
    26     7     8    1
    27     7     9   ar
    28     9    10   ar
    29    10    11    1
    30    18    19   ar
    31    19    20   ar
    32    20    15   ar
    33    33    29   ar
    34    10     4   ar
    35     2     3    1
@<TRIPOS>MOLECULE
*****
 33 35 0 0 0
SMALL
GASTEIGER

@<TRIPOS>ATOM
      1 C          60.6876   86.8460    9.7402 C.3     1  UNL1        0.1932
      2 O          59.8199   85.8844    8.9836 O.3     1  UNL1       -0.3755
      3 H          58.9965   86.3269    8.7246 H       1  UNL1        0.2110
      4 C          61.7314   85.7803    9.8976 C.ar    1  UNL1        0.0368
      5 C          62.0237   85.2114   11.2544 C.ar    1  UNL1        0.0028
      6 C          63.0674   84.1457   11.4118 C.ar    1  UNL1        0.0295
      7 C          63.8188   83.6487   10.2125 C.ar    1  UNL1        0.1424
      8 F          64.8626   82.5830   10.3699 F       1  UNL1       -0.2041
      9 C          63.5265   84.2176    8.8557 C.ar    1  UNL1        0.0590
     10 C          62.4827   85.2833    8.6983 C.ar    1  UNL1        0.1408
     11 F          62.1904   85.8522    7.3414 F       1  UNL1       -0.2043
     12 C          61.5554   87.8076   10.4967 C.3     1  UNL1        0.3254
     13 F          62.7514   87.9918    9.6104 F       1  UNL1       -0.1949
     14 F          60.5391   87.8576   11.5988 F       1  UNL1       -0.1949
     15 C          64.1587   90.6924   12.7662 C.ar    1  UNL1        0.0194
     16 C          63.5900   91.0834   11.4345 C.ar    1  UNL1        0.0029
     17 C          62.7222   90.1218   10.6780 C.ar    1  UNL1        0.0202
     18 C          62.4232   88.7692   11.2532 C.ar    1  UNL1        0.1218
     19 N          62.9919   88.3782   12.5850 N.ar    1  UNL1       -0.2427
     20 C          63.8596   89.3398   13.3415 C.ar    1  UNL1        0.0986
     21 C          66.0699   92.4520   12.7986 C.2     1  UNL1        0.0819
     22 C          65.0265   91.6540   13.5228 C.2     1  UNL1        0.0082
     23 C          66.9376   93.4136   13.5552 C.2     1  UNL1        0.3414
     24 O          66.4711   94.8197   13.7901 O.2     1  UNL1       -0.2449
     25 O          68.2720   92.9691   14.0767 O.3     1  UNL1       -0.4454
     26 C          67.2207   92.5430   16.4141 C.3     1  UNL1        0.0513
     27 C          68.4009   92.4840   15.4902 C.3     1  UNL1        0.2089
     28 C          59.6439   87.9118    9.5827 C.3     1  UNL1        0.1679
     29 N          59.5046   88.6381    8.2778 N.ar    1  UNL1       -0.2078
     30 C          60.2212   89.8971    7.8886 C.ar    1  UNL1        0.2216
     31 N          59.7836   90.2702    6.5030 N.ar    1  UNL1       -0.1048
     32 N          58.7966   89.2417    6.0360 N.ar    1  UNL1       -0.0226
     33 N          58.6241   88.2331    7.1328 N.ar    1  UNL1       -0.0428
@<TRIPOS>BOND
     1    26    27    1
     2    27    25    1
     3    25    23    1
     4    23    24    2
     5    23    21    1
     6    21    22    2
     7    22    15    1
     8    15    16   ar
     9    16    17   ar
    10    17    18   ar
    11    18    12    1
    12    12    13    1
    13    12    14    1
    14    12     1    1
    15     1     2    1
    16     1    28    1
    17    28    29    1
    18    29    30   ar
    19    30    31   ar
    20    31    32   ar
    21    32    33   ar
    22     1     4    1
    23     4     5   ar
    24     5     6   ar
    25     6     7   ar
    26     7     8    1
    27     7     9   ar
    28     9    10   ar
    29    10    11    1
    30    18    19   ar
    31    19    20   ar
    32    20    15   ar
    33    33    29   ar
    34    10     4   ar
    35     2     3    1
@<TRIPOS>MOLECULE
*****
 33 35 0 0 0
SMALL
GASTEIGER

@<TRIPOS>ATOM
      1 C          61.4190   86.7770    9.7573 C.3     1  UNL1        0.1932
      2 O          60.6767   85.9670    8.7361 O.3     1  UNL1       -0.3755
      3 H          60.0372   86.5335    8.2767 H       1  UNL1        0.2110
      4 C          62.2054   85.5614   10.1498 C.ar    1  UNL1        0.0368
      5 C          61.9736   84.9169   11.4843 C.ar    1  UNL1        0.0028
      6 C          62.7599   83.7013   11.8768 C.ar    1  UNL1        0.0295
      7 C          63.7781   83.1303   10.9349 C.ar    1  UNL1        0.1424
      8 F          64.5645   81.9148   11.3274 F       1  UNL1       -0.2041
      9 C          64.0099   83.7749    9.6004 C.ar    1  UNL1        0.0590
     10 C          63.2235   84.9905    9.2079 C.ar    1  UNL1        0.1408
     11 F          63.4554   85.6350    7.8734 F       1  UNL1       -0.2043
     12 C          62.1613   87.5870   10.7785 C.3     1  UNL1        0.3254
     13 F          61.7681   86.9692   12.0876 F       1  UNL1       -0.1949
     14 F          62.7517   88.4258    9.6841 F       1  UNL1       -0.1949
     15 C          64.3883   90.0170   13.8422 C.ar    1  UNL1        0.0194
     16 C          63.8464   90.6784   12.6098 C.ar    1  UNL1        0.0029
     17 C          63.1041   89.8684   11.5886 C.ar    1  UNL1        0.0202
     18 C          62.9036   88.3970   11.7997 C.ar    1  UNL1        0.1218
     19 N          63.4456   87.7355   13.0321 N.ar    1  UNL1       -0.2427
     20 C          64.1879   88.5455   14.0533 C.ar    1  UNL1        0.0986
     21 C          65.7082   92.1595   14.4883 C.2     1  UNL1        0.0819
     22 C          65.1306   90.8269   14.8634 C.2     1  UNL1        0.0082
     23 C          66.4505   92.9695   15.5095 C.2     1  UNL1        0.3414
     24 O          66.0420   92.9144   16.9517 O.2     1  UNL1       -0.2449
     25 O          67.6014   93.8345   15.0884 O.3     1  UNL1       -0.4454
     26 C          69.2604   92.2377   16.2915 C.3     1  UNL1        0.0513
     27 C          68.9885   93.5222   15.5662 C.3     1  UNL1        0.2089
     28 C          60.6326   87.9925    9.3648 C.3     1  UNL1        0.1679
     29 N          59.9764   88.8340   10.4190 N.ar    1  UNL1       -0.2078
     30 C          59.8238   90.3259   10.3877 C.ar    1  UNL1        0.2216
     31 N          59.1106   90.7452   11.6391 N.ar    1  UNL1       -0.1048
     32 N          58.8225   89.5124   12.4437 N.ar    1  UNL1       -0.0226
     33 N          59.3576   88.3312   11.6897 N.ar    1  UNL1       -0.0428
@<TRIPOS>BOND
     1    26    27    1
     2    27    25    1
     3    25    23    1
     4    23    24    2
     5    23    21    1
     6    21    22    2
     7    22    15    1
     8    15    16   ar
     9    16    17   ar
    10    17    18   ar
    11    18    12    1
    12    12    13    1
    13    12    14    1
    14    12     1    1
    15     1     2    1
    16     1    28    1
    17    28    29    1
    18    29    30   ar
    19    30    31   ar
    20    31    32   ar
    21    32    33   ar
    22     1     4    1
    23     4     5   ar
    24     5     6   ar
    25     6     7   ar
    26     7     8    1
    27     7     9   ar
    28     9    10   ar
    29    10    11    1
    30    18    19   ar
    31    19    20   ar
    32    20    15   ar
    33    33    29   ar
    34    10     4   ar
    35     2     3    1
@<TRIPOS>MOLECULE
*****
 33 35 0 0 0
SMALL
GASTEIGER

@<TRIPOS>ATOM
      1 C          62.8276   84.3813   12.1600 C.3     1  UNL1        0.1932
      2 O          62.4503   83.0200   11.6556 O.3     1  UNL1       -0.3755
      3 H          62.6805   82.3532   12.3215 H       1  UNL1        0.2110
      4 C          62.3166   84.9937   10.8896 C.ar    1  UNL1        0.0368
      5 C          61.0957   85.8646   10.9150 C.ar    1  UNL1        0.0028
      6 C          60.5846   86.4770    9.6446 C.ar    1  UNL1        0.0295
      7 C          61.2946   86.2183    8.3488 C.ar    1  UNL1        0.1424
      8 F          60.7835   86.8307    7.0784 F       1  UNL1       -0.2041
      9 C          62.5155   85.3474    8.3235 C.ar    1  UNL1        0.0590
     10 C          63.0265   84.7350    9.5938 C.ar    1  UNL1        0.1408
     11 F          64.2475   83.8640    9.5684 F       1  UNL1       -0.2043
     12 C          63.2050   85.7427   12.6644 C.3     1  UNL1        0.3254
     13 F          63.3093   86.5746   11.4206 F       1  UNL1       -0.1949
     14 F          63.1916   85.2248   14.0721 F       1  UNL1       -0.1949
     15 C          64.3370   89.8266   14.1775 C.ar    1  UNL1        0.0194
     16 C          64.6635   88.6087   14.9900 C.ar    1  UNL1        0.0029
     17 C          64.2861   87.2474   14.4856 C.ar    1  UNL1        0.0202
     18 C          63.5823   87.1040   13.1688 C.ar    1  UNL1        0.1218
     19 N          63.2558   88.3219   12.3564 N.ar    1  UNL1       -0.2427
     20 C          63.6332   89.6832   12.8607 C.ar    1  UNL1        0.0986
     21 C          66.0997   91.7153   14.4528 C.2     1  UNL1        0.0819
     22 C          64.7143   91.1880   14.6819 C.2     1  UNL1        0.0082
     23 C          66.4771   93.0766   14.9572 C.2     1  UNL1        0.3414
     24 O          66.9467   93.2489   16.3713 O.2     1  UNL1       -0.2449
     25 O          66.3848   94.2657   14.0474 O.3     1  UNL1       -0.4454
     26 C          66.1950   95.2573   11.6535 C.3     1  UNL1        0.0513
     27 C          66.3175   94.0698   12.5617 C.3     1  UNL1        0.2089
     28 C          63.3387   83.7690   13.4304 C.3     1  UNL1        0.1679
     29 N          63.0212   82.3393   13.7545 N.ar    1  UNL1       -0.2078
     30 C          63.9983   81.2013   13.7723 C.ar    1  UNL1        0.2216
     31 N          63.2518   79.9551   14.1466 N.ar    1  UNL1       -0.1048
     32 N          61.8133   80.3230   14.3601 N.ar    1  UNL1       -0.0226
     33 N          61.6708   81.7964   14.1178 N.ar    1  UNL1       -0.0428
@<TRIPOS>BOND
     1    26    27    1
     2    27    25    1
     3    25    23    1
     4    23    24    2
     5    23    21    1
     6    21    22    2
     7    22    15    1
     8    15    16   ar
     9    16    17   ar
    10    17    18   ar
    11    18    12    1
    12    12    13    1
    13    12    14    1
    14    12     1    1
    15     1     2    1
    16     1    28    1
    17    28    29    1
    18    29    30   ar
    19    30    31   ar
    20    31    32   ar
    21    32    33   ar
    22     1     4    1
    23     4     5   ar
    24     5     6   ar
    25     6     7   ar
    26     7     8    1
    27     7     9   ar
    28     9    10   ar
    29    10    11    1
    30    18    19   ar
    31    19    20   ar
    32    20    15   ar
    33    33    29   ar
    34    10     4   ar
    35     2     3    1
@<TRIPOS>MOLECULE
*****
 33 35 0 0 0
SMALL
GASTEIGER

@<TRIPOS>ATOM
      1 C          62.5396   86.6148   12.1852 C.3     1  UNL1        0.1932
      2 O          61.9384   85.2407   12.1705 O.3     1  UNL1       -0.3755
      3 H          62.3584   84.6967   12.8551 H       1  UNL1        0.2110
      4 C          61.6382   87.0212   11.0572 C.ar    1  UNL1        0.0368
      5 C          60.5010   87.9663   11.3092 C.ar    1  UNL1        0.0028
      6 C          59.5995   88.3727   10.1813 C.ar    1  UNL1        0.0295
      7 C          59.8353   87.8341    8.8014 C.ar    1  UNL1        0.1424
      8 F          58.9338   88.2405    7.6735 F       1  UNL1       -0.2041
      9 C          60.9725   86.8890    8.5494 C.ar    1  UNL1        0.0590
     10 C          61.8740   86.4826    9.6773 C.ar    1  UNL1        0.1408
     11 F          63.0113   85.5375    9.4252 F       1  UNL1       -0.2043
     12 C          63.1409   87.9890   12.1998 C.3     1  UNL1        0.3254
     13 F          62.8587   88.5233   10.8269 F       1  UNL1       -0.1949
     14 F          63.5817   87.7810   13.6184 F       1  UNL1       -0.1949
     15 C          64.9446   92.1114   12.2436 C.ar    1  UNL1        0.0194
     16 C          65.0590   91.2299   13.4518 C.ar    1  UNL1        0.0029
     17 C          64.4577   89.8557   13.4372 C.ar    1  UNL1        0.0202
     18 C          63.7421   89.3631   12.2144 C.ar    1  UNL1        0.1218
     19 N          63.6277   90.2447   11.0062 N.ar    1  UNL1       -0.2427
     20 C          64.2290   91.6189   11.0209 C.ar    1  UNL1        0.0986
     21 C          65.6678   94.2645   10.9822 C.2     1  UNL1        0.0819
     22 C          65.5458   93.4856   12.2583 C.2     1  UNL1        0.0082
     23 C          66.2691   95.6386   10.9968 C.2     1  UNL1        0.3414
     24 O          65.7707   96.6650   11.9705 O.2     1  UNL1       -0.2449
     25 O          67.3687   95.9864   10.0376 O.3     1  UNL1       -0.4454
     26 C          68.2598   93.7981    8.9573 C.3     1  UNL1        0.0513
     27 C          67.5998   95.1383    8.8222 C.3     1  UNL1        0.2089
     28 C          63.4411   86.2084   13.3131 C.3     1  UNL1        0.1679
     29 N          63.3119   84.8437   13.9220 N.ar    1  UNL1       -0.2078
     30 C          64.2586   83.6970   13.7250 C.ar    1  UNL1        0.2216
     31 N          63.7450   82.5306   14.5162 N.ar    1  UNL1       -0.1048
     32 N          62.4809   82.9565   15.2023 N.ar    1  UNL1       -0.0226
     33 N          62.2132   84.3860   14.8351 N.ar    1  UNL1       -0.0428
@<TRIPOS>BOND
     1    26    27    1
     2    27    25    1
     3    25    23    1
     4    23    24    2
     5    23    21    1
     6    21    22    2
     7    22    15    1
     8    15    16   ar
     9    16    17   ar
    10    17    18   ar
    11    18    12    1
    12    12    13    1
    13    12    14    1
    14    12     1    1
    15     1     2    1
    16     1    28    1
    17    28    29    1
    18    29    30   ar
    19    30    31   ar
    20    31    32   ar
    21    32    33   ar
    22     1     4    1
    23     4     5   ar
    24     5     6   ar
    25     6     7   ar
    26     7     8    1
    27     7     9   ar
    28     9    10   ar
    29    10    11    1
    30    18    19   ar
    31    19    20   ar
    32    20    15   ar
    33    33    29   ar
    34    10     4   ar
    35     2     3    1
@<TRIPOS>MOLECULE
*****
 33 35 0 0 0
SMALL
GASTEIGER

@<TRIPOS>ATOM
      1 C          64.7254   91.2401   14.3115 C.3     1  UNL1        0.1932
      2 O          65.5943   91.8650   15.3624 O.3     1  UNL1       -0.3755
      3 H          65.1838   91.7473   16.2334 H       1  UNL1        0.2110
      4 C          65.7059   91.6540   13.2546 C.ar    1  UNL1        0.0368
      5 C          65.2167   92.2725   11.9786 C.ar    1  UNL1        0.0028
      6 C          66.1973   92.6865   10.9217 C.ar    1  UNL1        0.0295
      7 C          67.6670   92.4820   11.1407 C.ar    1  UNL1        0.1424
      8 F          68.6476   92.8959   10.0837 F       1  UNL1       -0.2041
      9 C          68.1562   91.8635   12.4167 C.ar    1  UNL1        0.0590
     10 C          67.1757   91.4495   13.4736 C.ar    1  UNL1        0.1408
     11 F          67.6649   90.8311   14.7496 F       1  UNL1       -0.2043
     12 C          63.8564   90.6151   13.2606 C.3     1  UNL1        0.3254
     13 F          64.6648   89.4528   12.7653 F       1  UNL1       -0.1949
     14 F          62.8065   91.6573   13.5090 F       1  UNL1       -0.1949
     15 C          61.2496   88.7404   10.1080 C.ar    1  UNL1        0.0194
     16 C          61.4121   90.2307   10.1578 C.ar    1  UNL1        0.0029
     17 C          62.2811   90.8556   11.2087 C.ar    1  UNL1        0.0202
     18 C          62.9875   89.9902   12.2097 C.ar    1  UNL1        0.1218
     19 N          62.8249   88.4999   12.1599 N.ar    1  UNL1       -0.2427
     20 C          61.9560   87.8750   11.1090 C.ar    1  UNL1        0.0986
     21 C          60.6128   86.6934    8.6402 C.2     1  UNL1        0.0819
     22 C          60.3806   88.1154    9.0571 C.2     1  UNL1        0.0082
     23 C          59.7438   86.0684    7.5893 C.2     1  UNL1        0.3414
     24 O          58.3041   86.4718    7.4694 O.2     1  UNL1       -0.2449
     25 O          60.3147   85.0401    6.6583 O.3     1  UNL1       -0.4454
     26 C          62.4110   84.1136    5.4347 C.3     1  UNL1        0.0513
     27 C          61.7962   84.8101    6.6124 C.3     1  UNL1        0.2089
     28 C          63.7448   90.8261   15.3685 C.3     1  UNL1        0.1679
     29 N          63.5927   89.3769   15.7242 N.ar    1  UNL1       -0.2078
     30 C          64.3526   88.2353   15.1162 C.ar    1  UNL1        0.2216
     31 N          63.8835   86.9676   15.7666 N.ar    1  UNL1       -0.1048
     32 N          62.8338   87.3257   16.7765 N.ar    1  UNL1       -0.0226
     33 N          62.6541   88.8146   16.7503 N.ar    1  UNL1       -0.0428
@<TRIPOS>BOND
     1    26    27    1
     2    27    25    1
     3    25    23    1
     4    23    24    2
     5    23    21    1
     6    21    22    2
     7    22    15    1
     8    15    16   ar
     9    16    17   ar
    10    17    18   ar
    11    18    12    1
    12    12    13    1
    13    12    14    1
    14    12     1    1
    15     1     2    1
    16     1    28    1
    17    28    29    1
    18    29    30   ar
    19    30    31   ar
    20    31    32   ar
    21    32    33   ar
    22     1     4    1
    23     4     5   ar
    24     5     6   ar
    25     6     7   ar
    26     7     8    1
    27     7     9   ar
    28     9    10   ar
    29    10    11    1
    30    18    19   ar
    31    19    20   ar
    32    20    15   ar
    33    33    29   ar
    34    10     4   ar
    35     2     3    1
