@<TRIPOS>MOLECULE
*****
 24 26 0 0 0
SMALL
GASTEIGER

@<TRIPOS>ATOM
      1 C          63.8358   89.4537   15.0825 C.2     1  UNL1        0.2309
      2 O          62.4818   89.2551   15.6968 O.2     1  UNL1       -0.2744
      3 N          64.6577   88.2656   14.6788 N.am    1  UNL1       -0.2787
      4 H          65.5464   88.3959   14.2756 H       1  UNL1        0.1553
      5 C          64.1257   86.8790   14.8894 C.ar    1  UNL1        0.0807
      6 C          63.9776   85.8220   13.8355 C.ar    1  UNL1        0.0219
      7 C          63.4088   84.5957   14.4856 C.ar    1  UNL1        0.0084
      8 C          63.2053   84.8949   15.9414 C.ar    1  UNL1        0.0367
      9 S          63.6484   86.3060   16.1909 S.2     1  UNL1       -0.0717
     10 C          63.0980   83.2981   13.8003 C.ar    1  UNL1        0.0036
     11 C          63.6870   83.0015   12.4531 C.ar    1  UNL1        0.0207
     12 C          63.3763   81.7040   11.7678 C.ar    1  UNL1        0.0989
     13 N          62.4764   80.7028   12.4298 N.ar    1  UNL1       -0.2423
     14 C          61.8874   80.9994   13.7770 C.ar    1  UNL1        0.0989
     15 C          62.1982   82.2970   14.4623 C.ar    1  UNL1        0.0207
     16 C          64.3678   90.8402   14.8719 C.3     1  UNL1        0.1118
     17 C          65.8482   92.8899   11.8130 C.ar    1  UNL1        0.1384
     18 C          64.9675   92.4102   10.6975 C.ar    1  UNL1        0.0369
     19 C          63.8869   91.4072   10.9735 C.ar    1  UNL1        0.0028
     20 C          63.6870   90.8838   12.3650 C.ar    1  UNL1       -0.0036
     21 C          64.5676   91.3635   13.4804 C.ar    1  UNL1       -0.0101
     22 C          65.6483   92.3666   13.2044 C.ar    1  UNL1        0.0331
     23 C          66.6096   95.1518   10.7864 C.3     1  UNL1        0.2525
     24 O          66.9288   93.8930   11.5369 O.3     1  UNL1       -0.4714
@<TRIPOS>BOND
     1    23    24    1
     2    24    17    1
     3    17    18   ar
     4    18    19   ar
     5    19    20   ar
     6    20    21   ar
     7    21    16    1
     8    16     1    1
     9     1     2    2
    10     1     3   am
    11     3     5    1
    12     5     6   ar
    13     6     7   ar
    14     7    10    1
    15    10    11   ar
    16    11    12   ar
    17    12    13   ar
    18    13    14   ar
    19    14    15   ar
    20     7     8   ar
    21     8     9   ar
    22    21    22   ar
    23    22    17   ar
    24     9     5   ar
    25    15    10   ar
    26     3     4    1
@<TRIPOS>MOLECULE
*****
 24 26 0 0 0
SMALL
GASTEIGER

@<TRIPOS>ATOM
      1 C          63.6189   89.1606   15.5485 C.2     1  UNL1        0.2309
      2 O          62.4838   88.6222   16.3681 O.2     1  UNL1       -0.2744
      3 N          64.4571   88.2286   14.7245 N.am    1  UNL1       -0.2787
      4 H          65.2021   88.5820   14.1866 H       1  UNL1        0.1553
      5 C          64.1601   86.7583   14.7200 C.ar    1  UNL1        0.0807
      6 C          63.9856   85.8979   13.5038 C.ar    1  UNL1        0.0219
      7 C          63.7032   84.4981   13.9630 C.ar    1  UNL1        0.0084
      8 C          63.7032   84.4934   15.4631 C.ar    1  UNL1        0.0367
      9 S          63.9856   85.8904   15.9309 S.2     1  UNL1       -0.0717
     10 C          63.4629   83.3113   13.0777 C.ar    1  UNL1        0.0036
     11 C          62.7701   82.0974   13.6222 C.ar    1  UNL1        0.0207
     12 C          62.5298   80.9107   12.7370 C.ar    1  UNL1        0.0989
     13 N          62.9824   80.9377   11.3070 N.ar    1  UNL1       -0.2423
     14 C          63.6752   82.1516   10.7625 C.ar    1  UNL1        0.0989
     15 C          63.9154   83.3384   11.6479 C.ar    1  UNL1        0.0207
     16 C          63.9159   90.6308   15.5530 C.3     1  UNL1        0.1118
     17 C          67.1386   92.1264   13.7846 C.ar    1  UNL1        0.1384
     18 C          66.6083   92.3921   12.4069 C.ar    1  UNL1        0.0369
     19 C          65.1805   92.0708   12.0779 C.ar    1  UNL1        0.0028
     20 C          64.2831   91.4837   13.1265 C.ar    1  UNL1       -0.0036
     21 C          64.8134   91.2180   14.5043 C.ar    1  UNL1       -0.0101
     22 C          66.2411   91.5393   14.8333 C.ar    1  UNL1        0.0331
     23 C          68.9010   93.1473   15.3975 C.3     1  UNL1        0.2525
     24 O          68.5663   92.4477   14.1136 O.3     1  UNL1       -0.4714
@<TRIPOS>BOND
     1    23    24    1
     2    24    17    1
     3    17    18   ar
     4    18    19   ar
     5    19    20   ar
     6    20    21   ar
     7    21    16    1
     8    16     1    1
     9     1     2    2
    10     1     3   am
    11     3     5    1
    12     5     6   ar
    13     6     7   ar
    14     7    10    1
    15    10    11   ar
    16    11    12   ar
    17    12    13   ar
    18    13    14   ar
    19    14    15   ar
    20     7     8   ar
    21     8     9   ar
    22    21    22   ar
    23    22    17   ar
    24     9     5   ar
    25    15    10   ar
    26     3     4    1
@<TRIPOS>MOLECULE
*****
 24 26 0 0 0
SMALL
GASTEIGER

@<TRIPOS>ATOM
      1 C          63.2093   84.8336   15.0767 C.2     1  UNL1        0.2309
      2 O          62.7008   85.3939   13.7815 O.2     1  UNL1       -0.2744
      3 N          63.7192   85.7559   16.1441 N.am    1  UNL1       -0.2787
      4 H          64.0530   85.3882   16.9942 H       1  UNL1        0.1553
      5 C          63.7206   87.2385   15.9164 C.ar    1  UNL1        0.0807
      6 C          64.3816   87.9547   14.7762 C.ar    1  UNL1        0.0219
      7 C          64.1307   89.4240   14.9440 C.ar    1  UNL1        0.0084
      8 C          63.3146   89.6159   16.1879 C.ar    1  UNL1        0.0367
      9 S          63.0612   88.2652   16.7888 S.2     1  UNL1       -0.0717
     10 C          64.6115   90.5107   14.0285 C.ar    1  UNL1        0.0036
     11 C          65.7667   91.3770   14.4347 C.ar    1  UNL1        0.0207
     12 C          66.2476   92.4637   13.5194 C.ar    1  UNL1        0.0989
     13 N          65.5731   92.6841   12.1977 N.ar    1  UNL1       -0.2423
     14 C          64.4179   91.8178   11.7916 C.ar    1  UNL1        0.0989
     15 C          63.9371   90.7311   12.7070 C.ar    1  UNL1        0.0207
     16 C          63.2079   83.3510   15.3044 C.3     1  UNL1        0.1118
     17 C          63.6326   81.8219   11.6669 C.ar    1  UNL1        0.1384
     18 C          62.8702   80.5379   11.8084 C.ar    1  UNL1        0.0369
     19 C          62.2203   80.1916   13.1152 C.ar    1  UNL1        0.0028
     20 C          62.3329   81.1293   14.2805 C.ar    1  UNL1       -0.0036
     21 C          63.0953   82.4132   14.1391 C.ar    1  UNL1       -0.0101
     22 C          63.7452   82.7595   12.8323 C.ar    1  UNL1        0.0331
     23 C          64.0468   83.5127    9.7383 C.3     1  UNL1        0.2525
     24 O          64.2825   82.1682   10.3601 O.3     1  UNL1       -0.4714
@<TRIPOS>BOND
     1    23    24    1
     2    24    17    1
     3    17    18   ar
     4    18    19   ar
     5    19    20   ar
     6    20    21   ar
     7    21    16    1
     8    16     1    1
     9     1     2    2
    10     1     3   am
    11     3     5    1
    12     5     6   ar
    13     6     7   ar
    14     7    10    1
    15    10    11   ar
    16    11    12   ar
    17    12    13   ar
    18    13    14   ar
    19    14    15   ar
    20     7     8   ar
    21     8     9   ar
    22    21    22   ar
    23    22    17   ar
    24     9     5   ar
    25    15    10   ar
    26     3     4    1
@<TRIPOS>MOLECULE
*****
 24 26 0 0 0
SMALL
GASTEIGER

@<TRIPOS>ATOM
      1 C          61.9202   88.4774   11.5268 C.2     1  UNL1        0.2309
      2 O          63.1297   87.8587   12.1627 O.2     1  UNL1       -0.2744
      3 N          61.9126   89.9405   11.1957 N.am    1  UNL1       -0.2787
      4 H          61.1188   90.3466   10.7783 H       1  UNL1        0.1553
      5 C          63.1144   90.7847   11.5004 C.ar    1  UNL1        0.0807
      6 C          63.9345   91.5447   10.5005 C.ar    1  UNL1        0.0219
      7 C          65.0340   92.2469   11.2407 C.ar    1  UNL1        0.0084
      8 C          64.8935   91.9208   12.6982 C.ar    1  UNL1        0.0367
      9 S          63.7071   91.0172   12.8586 S.2     1  UNL1       -0.0717
     10 C          66.0889   93.1215   10.6306 C.ar    1  UNL1        0.0036
     11 C          67.3079   92.5052   10.0108 C.ar    1  UNL1        0.0207
     12 C          68.3628   93.3798    9.4007 C.ar    1  UNL1        0.0989
     13 N          68.1987   94.8709    9.4105 N.ar    1  UNL1       -0.2423
     14 C          66.9797   95.4871   10.0303 C.ar    1  UNL1        0.0989
     15 C          65.9248   94.6125   10.6404 C.ar    1  UNL1        0.0207
     16 C          60.7185   87.6332   11.2220 C.3     1  UNL1        0.1118
     17 C          61.4288   85.6497    7.8588 C.ar    1  UNL1        0.1384
     18 C          60.1623   85.9153    7.1002 C.ar    1  UNL1        0.0369
     19 C          59.0812   86.7534    7.7156 C.ar    1  UNL1        0.0028
     20 C          59.2666   87.3261    9.0895 C.ar    1  UNL1       -0.0036
     21 C          60.5330   87.0605    9.8480 C.ar    1  UNL1       -0.0101
     22 C          61.6142   86.2224    9.2327 C.ar    1  UNL1        0.0331
     23 C          62.3787   84.3413    5.8251 C.3     1  UNL1        0.2525
     24 O          62.5099   84.8116    7.2434 O.3     1  UNL1       -0.4714
@<TRIPOS>BOND
     1    23    24    1
     2    24    17    1
     3    17    18   ar
     4    18    19   ar
     5    19    20   ar
     6    20    21   ar
     7    21    16    1
     8    16     1    1
     9     1     2    2
    10     1     3   am
    11     3     5    1
    12     5     6   ar
    13     6     7   ar
    14     7    10    1
    15    10    11   ar
    16    11    12   ar
    17    12    13   ar
    18    13    14   ar
    19    14    15   ar
    20     7     8   ar
    21     8     9   ar
    22    21    22   ar
    23    22    17   ar
    24     9     5   ar
    25    15    10   ar
    26     3     4    1
@<TRIPOS>MOLECULE
*****
 24 26 0 0 0
SMALL
GASTEIGER

@<TRIPOS>ATOM
      1 C          63.7485   89.3363   15.2588 C.2     1  UNL1        0.2309
      2 O          62.4431   89.0773   15.9508 O.2     1  UNL1       -0.2744
      3 N          64.5630   88.1885   14.7399 N.am    1  UNL1       -0.2787
      4 H          65.4198   88.3584   14.2858 H       1  UNL1        0.1553
      5 C          64.0720   86.7817   14.9130 C.ar    1  UNL1        0.0807
      6 C          63.9232   85.7598   13.8251 C.ar    1  UNL1        0.0219
      7 C          63.4028   84.4964   14.4440 C.ar    1  UNL1        0.0084
      8 C          63.2301   84.7375   15.9144 C.ar    1  UNL1        0.0367
      9 S          63.6436   86.1499   16.2042 S.2     1  UNL1       -0.0717
     10 C          63.1072   83.2165   13.7197 C.ar    1  UNL1        0.0036
     11 C          62.2938   82.1476   14.3873 C.ar    1  UNL1        0.0207
     12 C          61.9981   80.8678   13.6631 C.ar    1  UNL1        0.0989
     13 N          62.5158   80.6568   12.2711 N.ar    1  UNL1       -0.2423
     14 C          63.3292   81.7258   11.6035 C.ar    1  UNL1        0.0989
     15 C          63.6249   83.0056   12.3278 C.ar    1  UNL1        0.0207
     16 C          64.2395   90.7430   15.0858 C.3     1  UNL1        0.1118
     17 C          63.9551   91.4965   11.1997 C.ar    1  UNL1        0.1384
     18 C          65.2011   92.3009   10.9750 C.ar    1  UNL1        0.0369
     19 C          66.1265   92.5860   12.1206 C.ar    1  UNL1        0.0028
     20 C          65.8060   92.0667   13.4908 C.ar    1  UNL1       -0.0036
     21 C          64.5601   91.2624   13.7155 C.ar    1  UNL1       -0.0101
     22 C          63.6346   90.9773   12.5700 C.ar    1  UNL1        0.0331
     23 C          61.9376   90.1946   10.2074 C.3     1  UNL1        0.2525
     24 O          63.0296   91.2115   10.0542 O.3     1  UNL1       -0.4714
@<TRIPOS>BOND
     1    23    24    1
     2    24    17    1
     3    17    18   ar
     4    18    19   ar
     5    19    20   ar
     6    20    21   ar
     7    21    16    1
     8    16     1    1
     9     1     2    2
    10     1     3   am
    11     3     5    1
    12     5     6   ar
    13     6     7   ar
    14     7    10    1
    15    10    11   ar
    16    11    12   ar
    17    12    13   ar
    18    13    14   ar
    19    14    15   ar
    20     7     8   ar
    21     8     9   ar
    22    21    22   ar
    23    22    17   ar
    24     9     5   ar
    25    15    10   ar
    26     3     4    1
@<TRIPOS>MOLECULE
*****
 24 26 0 0 0
SMALL
GASTEIGER

@<TRIPOS>ATOM
      1 C          63.5363   89.5816   13.8832 C.2     1  UNL1        0.2309
      2 O          63.8643   88.1553   13.5546 O.2     1  UNL1       -0.2744
      3 N          62.5141   90.3220   13.0725 N.am    1  UNL1       -0.2787
      4 H          62.2988   91.2582   13.2882 H       1  UNL1        0.1553
      5 C          61.8201   89.6361   11.9334 C.ar    1  UNL1        0.0807
      6 C          62.3612   88.4877   11.1343 C.ar    1  UNL1        0.0219
      7 C          61.3386   88.1199   10.1003 C.ar    1  UNL1        0.0084
      8 C          60.1656   89.0410   10.2603 C.ar    1  UNL1        0.0367
      9 S          60.4632   89.9780   11.3932 S.2     1  UNL1       -0.0717
     10 C          61.4667   87.0235    9.0846 C.ar    1  UNL1        0.0036
     11 C          60.3056   86.6833    8.1979 C.ar    1  UNL1        0.0207
     12 C          60.4336   85.5870    7.1823 C.ar    1  UNL1        0.0989
     13 N          61.7227   84.8308    7.0533 N.ar    1  UNL1       -0.2423
     14 C          62.8837   85.1710    7.9400 C.ar    1  UNL1        0.0989
     15 C          62.7557   86.2674    8.9557 C.ar    1  UNL1        0.0207
     16 C          64.2303   90.2676   15.0224 C.3     1  UNL1        0.1118
     17 C          66.4625   92.9008   13.0644 C.ar    1  UNL1        0.1384
     18 C          67.1606   93.5831   14.2033 C.ar    1  UNL1        0.0369
     19 C          66.8819   93.1602   15.6152 C.ar    1  UNL1        0.0028
     20 C          65.9052   92.0551   15.8882 C.ar    1  UNL1       -0.0036
     21 C          65.2071   91.3728   14.7494 C.ar    1  UNL1       -0.0101
     22 C          65.4858   91.7956   13.3374 C.ar    1  UNL1        0.0331
     23 C          66.4033   94.7151   11.2057 C.3     1  UNL1        0.2525
     24 O          66.7411   93.3236   11.6525 O.3     1  UNL1       -0.4714
@<TRIPOS>BOND
     1    23    24    1
     2    24    17    1
     3    17    18   ar
     4    18    19   ar
     5    19    20   ar
     6    20    21   ar
     7    21    16    1
     8    16     1    1
     9     1     2    2
    10     1     3   am
    11     3     5    1
    12     5     6   ar
    13     6     7   ar
    14     7    10    1
    15    10    11   ar
    16    11    12   ar
    17    12    13   ar
    18    13    14   ar
    19    14    15   ar
    20     7     8   ar
    21     8     9   ar
    22    21    22   ar
    23    22    17   ar
    24     9     5   ar
    25    15    10   ar
    26     3     4    1
@<TRIPOS>MOLECULE
*****
 24 26 0 0 0
SMALL
GASTEIGER

@<TRIPOS>ATOM
      1 C          63.1582   89.2673   12.4180 C.2     1  UNL1        0.2309
      2 O          63.7856   88.3946   13.4642 O.2     1  UNL1       -0.2744
      3 N          62.4728   88.6473   11.2365 N.am    1  UNL1       -0.2787
      4 H          62.0610   89.2201   10.5498 H       1  UNL1        0.1553
      5 C          62.4148   87.1546   11.1013 C.ar    1  UNL1        0.0807
      6 C          62.6511   86.1601   12.1990 C.ar    1  UNL1        0.0219
      7 C          62.4926   84.7851   11.6208 C.ar    1  UNL1        0.0084
      8 C          62.1583   84.9298   10.1657 C.ar    1  UNL1        0.0367
      9 S          62.1102   86.3942    9.8446 S.2     1  UNL1       -0.0717
     10 C          62.6422   83.4923   12.3668 C.ar    1  UNL1        0.0036
     11 C          62.8172   82.2074   11.6130 C.ar    1  UNL1        0.0207
     12 C          62.9667   80.9146   12.3588 C.ar    1  UNL1        0.0989
     13 N          62.9413   80.9068   13.8587 N.ar    1  UNL1       -0.2423
     14 C          62.7662   82.1917   14.6125 C.ar    1  UNL1        0.0989
     15 C          62.6167   83.4845   13.8665 C.ar    1  UNL1        0.0207
     16 C          63.2162   90.7601   12.5531 C.3     1  UNL1        0.1118
     17 C          66.4544   93.0483   12.3847 C.ar    1  UNL1        0.1384
     18 C          67.0714   92.7653   13.7224 C.ar    1  UNL1        0.0369
     19 C          66.4032   91.8139   14.6703 C.ar    1  UNL1        0.0028
     20 C          65.1182   91.1455   14.2806 C.ar    1  UNL1       -0.0036
     21 C          64.5013   91.4285   12.9429 C.ar    1  UNL1       -0.0101
     22 C          65.1694   92.3799   11.9950 C.ar    1  UNL1        0.0331
     23 C          66.3509   95.1492   10.8599 C.3     1  UNL1        0.2525
     24 O          67.1225   93.9996   11.4368 O.3     1  UNL1       -0.4714
@<TRIPOS>BOND
     1    23    24    1
     2    24    17    1
     3    17    18   ar
     4    18    19   ar
     5    19    20   ar
     6    20    21   ar
     7    21    16    1
     8    16     1    1
     9     1     2    2
    10     1     3   am
    11     3     5    1
    12     5     6   ar
    13     6     7   ar
    14     7    10    1
    15    10    11   ar
    16    11    12   ar
    17    12    13   ar
    18    13    14   ar
    19    14    15   ar
    20     7     8   ar
    21     8     9   ar
    22    21    22   ar
    23    22    17   ar
    24     9     5   ar
    25    15    10   ar
    26     3     4    1
@<TRIPOS>MOLECULE
*****
 24 26 0 0 0
SMALL
GASTEIGER

@<TRIPOS>ATOM
      1 C          63.4177   89.3678   13.5362 C.2     1  UNL1        0.2309
      2 O          63.8285   87.9393   13.3349 O.2     1  UNL1       -0.2744
      3 N          62.2946   89.9463   12.7274 N.am    1  UNL1       -0.2787
      4 H          62.0249   90.8839   12.8595 H       1  UNL1        0.1553
      5 C          61.5823   89.0962   11.7175 C.ar    1  UNL1        0.0807
      6 C          62.2299   88.1740   10.7275 C.ar    1  UNL1        0.0219
      7 C          61.1452   87.5268    9.9184 C.ar    1  UNL1        0.0084
      8 C          59.8271   88.0491   10.4084 C.ar    1  UNL1        0.0367
      9 S          60.0973   89.0190   11.5202 S.2     1  UNL1       -0.0717
     10 C          61.3436   86.5321    8.8134 C.ar    1  UNL1        0.0036
     11 C          62.6726   85.8583    8.6405 C.ar    1  UNL1        0.0207
     12 C          62.8711   84.8636    7.5356 C.ar    1  UNL1        0.0989
     13 N          61.7406   84.5425    6.6033 N.ar    1  UNL1       -0.2423
     14 C          60.4116   85.2163    6.7762 C.ar    1  UNL1        0.0989
     15 C          60.2132   86.2111    7.8812 C.ar    1  UNL1        0.0207
     16 C          64.1300   90.2179   14.5460 C.3     1  UNL1        0.1118
     17 C          66.8297   93.1267   14.5739 C.ar    1  UNL1        0.1384
     18 C          66.6706   93.6744   13.1866 C.ar    1  UNL1        0.0369
     19 C          65.6646   93.0699   12.2524 C.ar    1  UNL1        0.0028
     20 C          64.8178   91.9178   12.7055 C.ar    1  UNL1       -0.0036
     21 C          64.9769   91.3701   14.0929 C.ar    1  UNL1       -0.0101
     22 C          65.9828   91.9746   15.0270 C.ar    1  UNL1        0.0331
     23 C          68.8877   92.8675   16.1383 C.3     1  UNL1        0.2525
     24 O          67.8356   93.7311   15.5081 O.3     1  UNL1       -0.4714
@<TRIPOS>BOND
     1    23    24    1
     2    24    17    1
     3    17    18   ar
     4    18    19   ar
     5    19    20   ar
     6    20    21   ar
     7    21    16    1
     8    16     1    1
     9     1     2    2
    10     1     3   am
    11     3     5    1
    12     5     6   ar
    13     6     7   ar
    14     7    10    1
    15    10    11   ar
    16    11    12   ar
    17    12    13   ar
    18    13    14   ar
    19    14    15   ar
    20     7     8   ar
    21     8     9   ar
    22    21    22   ar
    23    22    17   ar
    24     9     5   ar
    25    15    10   ar
    26     3     4    1
@<TRIPOS>MOLECULE
*****
 24 26 0 0 0
SMALL
GASTEIGER

@<TRIPOS>ATOM
      1 C          63.6367   89.2341   14.3115 C.2     1  UNL1        0.2309
      2 O          63.4751   88.9027   15.7655 O.2     1  UNL1       -0.2744
      3 N          63.8252   88.1349   13.3082 N.am    1  UNL1       -0.2787
      4 H          63.9312   88.3524   12.3539 H       1  UNL1        0.1553
      5 C          63.8521   86.7045   13.7590 C.ar    1  UNL1        0.0807
      6 C          63.2288   85.5428   13.0436 C.ar    1  UNL1        0.0219
      7 C          63.4984   84.3050   13.8467 C.ar    1  UNL1        0.0084
      8 C          64.2885   84.7017   15.0586 C.ar    1  UNL1        0.0367
      9 S          64.5070   86.1847   15.0044 S.2     1  UNL1       -0.0717
     10 C          63.0559   82.9146   13.4991 C.ar    1  UNL1        0.0036
     11 C          63.5328   82.2706   12.2311 C.ar    1  UNL1        0.0207
     12 C          63.0903   80.8803   11.8834 C.ar    1  UNL1        0.0989
     13 N          62.1707   80.1337   12.8038 N.ar    1  UNL1       -0.2423
     14 C          61.6937   80.7776   14.0719 C.ar    1  UNL1        0.0989
     15 C          62.1363   82.1681   14.4195 C.ar    1  UNL1        0.0207
     16 C          63.6098   90.6644   13.8607 C.3     1  UNL1        0.1118
     17 C          66.1642   92.6539   11.5657 C.ar    1  UNL1        0.1384
     18 C          67.3893   92.6445   12.4310 C.ar    1  UNL1        0.0369
     19 C          67.3547   91.9751   13.7729 C.ar    1  UNL1        0.0028
     20 C          66.0949   91.3151   14.2495 C.ar    1  UNL1       -0.0036
     21 C          64.8697   91.3245   13.3842 C.ar    1  UNL1       -0.0101
     22 C          64.9043   91.9939   12.0423 C.ar    1  UNL1        0.0331
     23 C          67.4851   93.3977    9.4557 C.3     1  UNL1        0.2525
     24 O          66.1988   93.3233   10.2238 O.3     1  UNL1       -0.4714
@<TRIPOS>BOND
     1    23    24    1
     2    24    17    1
     3    17    18   ar
     4    18    19   ar
     5    19    20   ar
     6    20    21   ar
     7    21    16    1
     8    16     1    1
     9     1     2    2
    10     1     3   am
    11     3     5    1
    12     5     6   ar
    13     6     7   ar
    14     7    10    1
    15    10    11   ar
    16    11    12   ar
    17    12    13   ar
    18    13    14   ar
    19    14    15   ar
    20     7     8   ar
    21     8     9   ar
    22    21    22   ar
    23    22    17   ar
    24     9     5   ar
    25    15    10   ar
    26     3     4    1
