@<TRIPOS>MOLECULE
*****
 30 33 0 0 0
SMALL
GASTEIGER

@<TRIPOS>ATOM
      1 C          62.4648   89.6376   11.3452 C.3     1  UNL1        0.1025
      2 C          62.6144   90.3542   10.0360 C.3     1  UNL1        0.0259
      3 C          63.5627   91.5104    9.9181 C.3     1  UNL1        0.0450
      4 C          64.3613   91.9500   11.1093 C.ar    1  UNL1        0.0335
      5 C          65.3667   93.0478   11.2939 C.ar    1  UNL1       -0.0035
      6 C          65.8385   93.0096   12.7173 C.ar    1  UNL1        0.0134
      7 C          66.8259   93.8509   13.4704 C.ar    1  UNL1        0.0035
      8 C          67.0994   93.5710   14.9185 C.ar    1  UNL1        0.0297
      9 C          66.3855   92.4496   15.6134 C.ar    1  UNL1        0.1416
     10 F          66.6590   92.1697   17.0615 F       1  UNL1       -0.2041
     11 C          65.3981   91.6082   14.8603 C.ar    1  UNL1        0.0468
     12 C          65.1246   91.8882   13.4123 C.ar    1  UNL1        0.0616
     13 N          64.2117   91.2334   12.4184 N.ar    1  UNL1       -0.3294
     14 C          63.2634   90.0772   12.5364 C.3     1  UNL1        0.1233
     15 C          60.0820   88.7222   11.8292 C.3     1  UNL1        0.1149
     16 N          61.5165   88.4813   11.4632 N.3     1  UNL1       -0.1535
     17 S          62.0029   87.0842   11.2153 S.O2    1  UNL1        0.0633
     18 O          62.9588   87.2130   12.3641 O.2     1  UNL1       -0.1528
     19 O          61.0471   86.9553   10.0665 O.2     1  UNL1       -0.1528
     20 C          62.4893   85.6870   10.9674 C.ar    1  UNL1        0.1223
     21 C          62.5249   84.6947   12.0916 C.ar    1  UNL1        0.0222
     22 C          63.0112   83.2976   11.8436 C.ar    1  UNL1        0.0310
     23 C          63.4620   82.8928   10.4715 C.ar    1  UNL1        0.1402
     24 F          63.9484   81.4956   10.2235 F       1  UNL1       -0.2042
     25 C          63.4265   83.8851    9.3471 C.ar    1  UNL1        0.0310
     26 C          62.9401   85.2823    9.5951 C.ar    1  UNL1        0.0222
     27 C          65.8207   94.0141   10.2403 C.3     1  UNL1        0.0691
     28 C          67.1578   93.8351    9.5845 C.2     1  UNL1        0.0548
     29 O          68.1546   92.8752   10.1634 O.co2   1  UNL1       -0.5488
     30 O          67.4981   94.6159    8.3499 O.co2   1  UNL1       -0.5488
@<TRIPOS>UNITY_ATOM_ATTR
29 1
charge -1
@<TRIPOS>BOND
     1    15    16    1
     2     1    16    1
     3     1     2    1
     4     2     3    1
     5     3     4    1
     6     4     5   ar
     7     5    27    1
     8    27    28    1
     9    28    29   ar
    10    28    30   ar
    11     5     6   ar
    12     6     7   ar
    13     7     8   ar
    14     8     9   ar
    15     9    10    1
    16     9    11   ar
    17    11    12   ar
    18    12    13   ar
    19    13    14    1
    20    16    17    1
    21    17    18    2
    22    17    19    2
    23    17    20    1
    24    20    21   ar
    25    21    22   ar
    26    22    23   ar
    27    23    24    1
    28    23    25   ar
    29    25    26   ar
    30    14     1    1
    31    26    20   ar
    32    13     4   ar
    33    12     6   ar
@<TRIPOS>MOLECULE
*****
 30 33 0 0 0
SMALL
GASTEIGER

@<TRIPOS>ATOM
      1 C          62.4778   90.2716   11.2894 C.3     1  UNL1        0.1025
      2 C          62.8359   90.9901   10.0223 C.3     1  UNL1        0.0259
      3 C          63.9429   92.0022   10.0213 C.3     1  UNL1        0.0450
      4 C          64.6918   92.2959   11.2873 C.ar    1  UNL1        0.0335
      5 C          65.8217   93.2350   11.5904 C.ar    1  UNL1       -0.0035
      6 C          66.1618   93.0968   13.0447 C.ar    1  UNL1        0.0134
      7 C          67.1900   93.7715   13.9035 C.ar    1  UNL1        0.0035
      8 C          67.2987   93.4217   15.3582 C.ar    1  UNL1        0.0297
      9 C          66.3792   92.3972   15.9540 C.ar    1  UNL1        0.1416
     10 F          66.4879   92.0475   17.4086 F       1  UNL1       -0.2041
     11 C          65.3509   91.7226   15.0951 C.ar    1  UNL1        0.0468
     12 C          65.2422   92.0723   13.6405 C.ar    1  UNL1        0.0616
     13 N          64.3338   91.5774   12.5544 N.ar    1  UNL1       -0.3294
     14 C          63.2268   90.5652   12.5554 C.3     1  UNL1        0.1233
     15 C          60.3009   89.3191   12.3401 C.3     1  UNL1        0.1149
     16 N          61.3708   89.2594   11.2904 N.3     1  UNL1       -0.1535
     17 S          61.3336   88.1874   10.2418 S.O2    1  UNL1        0.0633
     18 O          62.4750   87.4869   10.9176 O.2     1  UNL1       -0.1528
     19 O          60.1923   88.8880    9.5661 O.2     1  UNL1       -0.1528
     20 C          61.2965   87.1155    9.1932 C.ar    1  UNL1        0.1223
     21 C          62.5184   86.2888    8.9222 C.ar    1  UNL1        0.0222
     22 C          62.4813   85.2169    7.8736 C.ar    1  UNL1        0.0310
     23 C          61.2223   84.9716    7.0960 C.ar    1  UNL1        0.1402
     24 F          61.1852   83.8997    6.0474 F       1  UNL1       -0.2042
     25 C          60.0003   85.7983    7.3670 C.ar    1  UNL1        0.0310
     26 C          60.0374   86.8703    8.4156 C.ar    1  UNL1        0.0222
     27 C          66.4933   94.1513   10.6110 C.3     1  UNL1        0.0691
     28 C          67.5942   93.6339    9.7332 C.2     1  UNL1        0.0548
     29 O          68.4650   92.5083   10.2071 O.co2   1  UNL1       -0.5488
     30 O          67.8241   94.2422    8.3815 O.co2   1  UNL1       -0.5488
@<TRIPOS>UNITY_ATOM_ATTR
29 1
charge -1
@<TRIPOS>BOND
     1    15    16    1
     2     1    16    1
     3     1     2    1
     4     2     3    1
     5     3     4    1
     6     4     5   ar
     7     5    27    1
     8    27    28    1
     9    28    29   ar
    10    28    30   ar
    11     5     6   ar
    12     6     7   ar
    13     7     8   ar
    14     8     9   ar
    15     9    10    1
    16     9    11   ar
    17    11    12   ar
    18    12    13   ar
    19    13    14    1
    20    16    17    1
    21    17    18    2
    22    17    19    2
    23    17    20    1
    24    20    21   ar
    25    21    22   ar
    26    22    23   ar
    27    23    24    1
    28    23    25   ar
    29    25    26   ar
    30    14     1    1
    31    26    20   ar
    32    13     4   ar
    33    12     6   ar
@<TRIPOS>MOLECULE
*****
 30 33 0 0 0
SMALL
GASTEIGER

@<TRIPOS>ATOM
      1 C          62.0649   89.7325   12.2595 C.3     1  UNL1        0.1025
      2 C          62.5339   89.3296   13.6261 C.3     1  UNL1        0.0259
      3 C          63.7824   89.9324   14.1985 C.3     1  UNL1        0.0450
      4 C          64.5620   90.9382   13.4043 C.ar    1  UNL1        0.0335
      5 C          65.8206   91.6969   13.7050 C.ar    1  UNL1       -0.0035
      6 C          66.1294   92.5688   12.5241 C.ar    1  UNL1        0.0134
      7 C          67.2449   93.5345   12.2539 C.ar    1  UNL1        0.0035
      8 C          67.2927   94.2804   10.9533 C.ar    1  UNL1        0.0297
      9 C          66.2250   94.0605    9.9229 C.ar    1  UNL1        0.1416
     10 F          66.2728   94.8063    8.6224 F       1  UNL1       -0.2041
     11 C          65.1095   93.0947   10.1931 C.ar    1  UNL1        0.0468
     12 C          65.0617   92.3489   11.4937 C.ar    1  UNL1        0.0616
     13 N          64.0930   91.3411   12.0377 N.ar    1  UNL1       -0.3294
     14 C          62.8445   90.7383   11.4653 C.3     1  UNL1        0.1233
     15 C          59.4763   89.5117   12.2422 C.3     1  UNL1        0.1149
     16 N          60.8163   89.1297   11.6870 N.3     1  UNL1       -0.1535
     17 S          60.9079   88.1448   10.5593 S.O2    1  UNL1        0.0633
     18 O          61.2397   87.0564   11.5368 O.2     1  UNL1       -0.1528
     19 O          60.5761   89.2332    9.5819 O.2     1  UNL1       -0.1528
     20 C          60.9994   87.1599    9.4317 C.ar    1  UNL1        0.1223
     21 C          59.8089   86.9126    8.5534 C.ar    1  UNL1        0.0222
     22 C          59.9004   85.9278    7.4257 C.ar    1  UNL1        0.0310
     23 C          61.1825   85.1902    7.1763 C.ar    1  UNL1        0.1402
     24 F          61.2740   84.2054    6.0486 F       1  UNL1       -0.2042
     25 C          62.3731   85.4375    8.0546 C.ar    1  UNL1        0.0310
     26 C          62.2816   86.4224    9.1823 C.ar    1  UNL1        0.0222
     27 C          66.6285   91.6007   14.9651 C.3     1  UNL1        0.0691
     28 C          66.5404   92.6856   15.9972 C.2     1  UNL1        0.0548
     29 O          67.6285   93.7130   16.1002 O.co2   1  UNL1       -0.5488
     30 O          65.3641   92.7432   16.9262 O.co2   1  UNL1       -0.5488
@<TRIPOS>UNITY_ATOM_ATTR
29 1
charge -1
@<TRIPOS>BOND
     1    15    16    1
     2     1    16    1
     3     1     2    1
     4     2     3    1
     5     3     4    1
     6     4     5   ar
     7     5    27    1
     8    27    28    1
     9    28    29   ar
    10    28    30   ar
    11     5     6   ar
    12     6     7   ar
    13     7     8   ar
    14     8     9   ar
    15     9    10    1
    16     9    11   ar
    17    11    12   ar
    18    12    13   ar
    19    13    14    1
    20    16    17    1
    21    17    18    2
    22    17    19    2
    23    17    20    1
    24    20    21   ar
    25    21    22   ar
    26    22    23   ar
    27    23    24    1
    28    23    25   ar
    29    25    26   ar
    30    14     1    1
    31    26    20   ar
    32    13     4   ar
    33    12     6   ar
@<TRIPOS>MOLECULE
*****
 30 33 0 0 0
SMALL
GASTEIGER

@<TRIPOS>ATOM
      1 C          64.4824   89.9208   13.7428 C.3     1  UNL1        0.1025
      2 C          64.8225   88.7462   14.6114 C.3     1  UNL1        0.0259
      3 C          64.3048   87.3819   14.2642 C.3     1  UNL1        0.0450
      4 C          63.4471   87.1922   13.0484 C.ar    1  UNL1        0.0335
      5 C          62.7969   85.9758   12.4586 C.ar    1  UNL1       -0.0035
      6 C          62.0551   86.3987   11.2254 C.ar    1  UNL1        0.0134
      7 C          61.2298   85.6292   10.2371 C.ar    1  UNL1        0.0035
      8 C          60.5961   86.3373    9.0765 C.ar    1  UNL1        0.0297
      9 C          60.7877   87.8151    8.9042 C.ar    1  UNL1        0.1416
     10 F          60.1540   88.5232    7.7436 F       1  UNL1       -0.2041
     11 C          61.6130   88.5846    9.8925 C.ar    1  UNL1        0.0468
     12 C          62.2467   87.8764   11.0531 C.ar    1  UNL1        0.0616
     13 N          63.1070   88.3668   12.1797 N.ar    1  UNL1       -0.3294
     14 C          63.6246   89.7311   12.5270 C.3     1  UNL1        0.1233
     15 C          64.9322   91.7752   15.5061 C.3     1  UNL1        0.1149
     16 N          65.0000   91.2852   14.0900 N.3     1  UNL1       -0.1535
     17 S          65.5855   92.1597   13.0211 S.O2    1  UNL1        0.0633
     18 O          64.2148   92.3857   12.4552 O.2     1  UNL1       -0.1528
     19 O          66.9562   91.9336   13.5869 O.2     1  UNL1       -0.1528
     20 C          66.1709   93.0341   11.9521 C.ar    1  UNL1        0.1223
     21 C          66.8481   92.4160   10.7649 C.ar    1  UNL1        0.0222
     22 C          67.4335   93.2904    9.6960 C.ar    1  UNL1        0.0310
     23 C          67.3418   94.7829    9.8142 C.ar    1  UNL1        0.1402
     24 F          67.9273   95.6573    8.7453 F       1  UNL1       -0.2042
     25 C          66.6647   95.4011   11.0014 C.ar    1  UNL1        0.0310
     26 C          66.0792   94.5266   12.0704 C.ar    1  UNL1        0.0222
     27 C          62.8750   84.5814   13.0058 C.3     1  UNL1        0.0691
     28 C          62.8282   84.3536   14.4877 C.2     1  UNL1        0.0548
     29 O          61.6572   84.8456   15.2855 O.co2   1  UNL1       -0.5488
     30 O          63.9524   83.6337   15.1716 O.co2   1  UNL1       -0.5488
@<TRIPOS>UNITY_ATOM_ATTR
29 1
charge -1
@<TRIPOS>BOND
     1    15    16    1
     2     1    16    1
     3     1     2    1
     4     2     3    1
     5     3     4    1
     6     4     5   ar
     7     5    27    1
     8    27    28    1
     9    28    29   ar
    10    28    30   ar
    11     5     6   ar
    12     6     7   ar
    13     7     8   ar
    14     8     9   ar
    15     9    10    1
    16     9    11   ar
    17    11    12   ar
    18    12    13   ar
    19    13    14    1
    20    16    17    1
    21    17    18    2
    22    17    19    2
    23    17    20    1
    24    20    21   ar
    25    21    22   ar
    26    22    23   ar
    27    23    24    1
    28    23    25   ar
    29    25    26   ar
    30    14     1    1
    31    26    20   ar
    32    13     4   ar
    33    12     6   ar
@<TRIPOS>MOLECULE
*****
 30 33 0 0 0
SMALL
GASTEIGER

@<TRIPOS>ATOM
      1 C          63.4277   85.9742   13.1840 C.3     1  UNL1        0.1025
      2 C          63.9874   87.2710   13.6888 C.3     1  UNL1        0.0259
      3 C          63.6299   88.5582   13.0067 C.3     1  UNL1        0.0450
      4 C          62.7126   88.5485   11.8199 C.ar    1  UNL1        0.0335
      5 C          62.1856   89.6509   10.9496 C.ar    1  UNL1       -0.0035
      6 C          61.3002   89.0352    9.9071 C.ar    1  UNL1        0.0134
      7 C          60.5097   89.6332    8.7813 C.ar    1  UNL1        0.0035
      8 C          59.6989   88.7484    7.8813 C.ar    1  UNL1        0.0297
      9 C          59.6787   87.2656    8.1072 C.ar    1  UNL1        0.1416
     10 F          58.8680   86.3808    7.2072 F       1  UNL1       -0.2041
     11 C          60.4692   86.6677    9.2331 C.ar    1  UNL1        0.0468
     12 C          61.2799   87.5524   10.1330 C.ar    1  UNL1        0.0616
     13 N          62.1529   87.2517   11.3152 N.ar    1  UNL1       -0.3294
     14 C          62.5104   85.9645   11.9972 C.3     1  UNL1        0.1233
     15 C          64.4029   84.7087   15.2329 C.3     1  UNL1        0.1149
     16 N          63.7852   84.6869   13.8661 N.3     1  UNL1       -0.1535
     17 S          63.5251   83.3779   13.1814 S.O2    1  UNL1        0.0633
     18 O          62.3326   83.1536   14.0633 O.2     1  UNL1       -0.1528
     19 O          64.7175   83.6022   12.2995 O.2     1  UNL1       -0.1528
     20 C          63.2650   82.0689   12.4967 C.ar    1  UNL1        0.1223
     21 C          62.8225   80.8793   13.2960 C.ar    1  UNL1        0.0222
     22 C          62.5623   79.5703   12.6113 C.ar    1  UNL1        0.0310
     23 C          62.7447   79.4509   11.1272 C.ar    1  UNL1        0.1402
     24 F          62.4846   78.1419   10.4425 F       1  UNL1       -0.2042
     25 C          63.1872   80.6406   10.3278 C.ar    1  UNL1        0.0310
     26 C          63.4473   81.9496   11.0125 C.ar    1  UNL1        0.0222
     27 C          62.4905   91.1122   11.0962 C.3     1  UNL1        0.0691
     28 C          63.8160   91.5504   11.6450 C.2     1  UNL1        0.0548
     29 O          63.9964   91.7195   13.1245 O.co2   1  UNL1       -0.5488
     30 O          64.9610   91.8196   10.7142 O.co2   1  UNL1       -0.5488
@<TRIPOS>UNITY_ATOM_ATTR
29 1
charge -1
@<TRIPOS>BOND
     1    15    16    1
     2     1    16    1
     3     1     2    1
     4     2     3    1
     5     3     4    1
     6     4     5   ar
     7     5    27    1
     8    27    28    1
     9    28    29   ar
    10    28    30   ar
    11     5     6   ar
    12     6     7   ar
    13     7     8   ar
    14     8     9   ar
    15     9    10    1
    16     9    11   ar
    17    11    12   ar
    18    12    13   ar
    19    13    14    1
    20    16    17    1
    21    17    18    2
    22    17    19    2
    23    17    20    1
    24    20    21   ar
    25    21    22   ar
    26    22    23   ar
    27    23    24    1
    28    23    25   ar
    29    25    26   ar
    30    14     1    1
    31    26    20   ar
    32    13     4   ar
    33    12     6   ar
@<TRIPOS>MOLECULE
*****
 30 33 0 0 0
SMALL
GASTEIGER

@<TRIPOS>ATOM
      1 C          62.0005   88.4852   11.2566 C.3     1  UNL1        0.1025
      2 C          61.8426   88.6409    9.7732 C.3     1  UNL1        0.0259
      3 C          62.1120   87.4785    8.8642 C.3     1  UNL1        0.0450
      4 C          62.5392   86.1604    9.4387 C.ar    1  UNL1        0.0335
      5 C          62.8729   84.8465    8.7966 C.ar    1  UNL1       -0.0035
      6 C          63.2371   83.8788    9.8833 C.ar    1  UNL1        0.0134
      7 C          63.6535   82.4382    9.8463 C.ar    1  UNL1        0.0035
      8 C          63.9614   81.7134   11.1231 C.ar    1  UNL1        0.0297
      9 C          63.8527   82.4293   12.4368 C.ar    1  UNL1        0.1416
     10 F          64.1605   81.7046   13.7135 F       1  UNL1       -0.2041
     11 C          63.4362   83.8699   12.4737 C.ar    1  UNL1        0.0468
     12 C          63.1284   84.5946   11.1970 C.ar    1  UNL1        0.0616
     13 N          62.6971   86.0047   10.9222 N.ar    1  UNL1       -0.3294
     14 C          62.4278   87.1671   11.8312 C.3     1  UNL1        0.1233
     15 C          60.3186   90.0453   12.4763 C.3     1  UNL1        0.1149
     16 N          61.7312   89.6476   12.1657 N.3     1  UNL1       -0.1535
     17 S          62.8745   90.4124   12.7641 S.O2    1  UNL1        0.0633
     18 O          63.1398   91.0556   11.4352 O.2     1  UNL1       -0.1528
     19 O          62.6092   89.7692   14.0930 O.2     1  UNL1       -0.1528
     20 C          64.0177   91.1771   13.3625 C.ar    1  UNL1        0.1223
     21 C          64.3159   91.0560   14.8275 C.ar    1  UNL1        0.0222
     22 C          65.4592   91.8208   15.4259 C.ar    1  UNL1        0.0310
     23 C          66.3043   92.7066   14.5593 C.ar    1  UNL1        0.1402
     24 F          67.4476   93.4714   15.1577 F       1  UNL1       -0.2042
     25 C          66.0061   92.8277   13.0942 C.ar    1  UNL1        0.0310
     26 C          64.8628   92.0630   12.4958 C.ar    1  UNL1        0.0222
     27 C          62.8470   84.5520    7.3260 C.3     1  UNL1        0.0691
     28 C          61.5517   84.6111    6.5720 C.2     1  UNL1        0.0548
     29 O          60.3464   85.2457    7.2002 O.co2   1  UNL1       -0.5488
     30 O          61.4617   84.0357    5.1897 O.co2   1  UNL1       -0.5488
@<TRIPOS>UNITY_ATOM_ATTR
29 1
charge -1
@<TRIPOS>BOND
     1    15    16    1
     2     1    16    1
     3     1     2    1
     4     2     3    1
     5     3     4    1
     6     4     5   ar
     7     5    27    1
     8    27    28    1
     9    28    29   ar
    10    28    30   ar
    11     5     6   ar
    12     6     7   ar
    13     7     8   ar
    14     8     9   ar
    15     9    10    1
    16     9    11   ar
    17    11    12   ar
    18    12    13   ar
    19    13    14    1
    20    16    17    1
    21    17    18    2
    22    17    19    2
    23    17    20    1
    24    20    21   ar
    25    21    22   ar
    26    22    23   ar
    27    23    24    1
    28    23    25   ar
    29    25    26   ar
    30    14     1    1
    31    26    20   ar
    32    13     4   ar
    33    12     6   ar
@<TRIPOS>MOLECULE
*****
 30 33 0 0 0
SMALL
GASTEIGER

@<TRIPOS>ATOM
      1 C          64.0524   90.6475   12.5439 C.3     1  UNL1        0.1025
      2 C          63.1190   90.8532   11.3880 C.3     1  UNL1        0.0259
      3 C          62.3593   89.6905   10.8214 C.3     1  UNL1        0.0450
      4 C          62.5332   88.3221   11.4109 C.ar    1  UNL1        0.0335
      5 C          61.9230   86.9958   11.0661 C.ar    1  UNL1       -0.0035
      6 C          62.4794   85.9706   12.0091 C.ar    1  UNL1        0.0134
      7 C          62.2406   84.4958   12.1431 C.ar    1  UNL1        0.0035
      8 C          62.9559   83.7135   13.2045 C.ar    1  UNL1        0.0297
      9 C          63.9099   84.4061   14.1320 C.ar    1  UNL1        0.1416
     10 F          64.6251   83.6239   15.1934 F       1  UNL1       -0.2041
     11 C          64.1487   85.8810   13.9980 C.ar    1  UNL1        0.0468
     12 C          63.4334   86.6632   12.9366 C.ar    1  UNL1        0.0616
     13 N          63.4666   88.1165   12.5668 N.ar    1  UNL1       -0.3294
     14 C          64.2263   89.2792   13.1334 C.3     1  UNL1        0.1233
     15 C          64.9450   91.9670   14.5964 C.3     1  UNL1        0.1149
     16 N          64.8121   91.8103   13.1106 N.3     1  UNL1       -0.1535
     17 S          65.4389   92.8163   12.1913 S.O2    1  UNL1        0.0633
     18 O          65.1275   91.9369   11.0166 O.2     1  UNL1       -0.1528
     19 O          65.7503   93.6957   13.3659 O.2     1  UNL1       -0.1528
     20 C          66.0657   93.8223   11.2720 C.ar    1  UNL1        0.1223
     21 C          66.7648   93.3662   10.0257 C.ar    1  UNL1        0.0222
     22 C          67.3916   94.3722    9.1064 C.ar    1  UNL1        0.0310
     23 C          67.3192   95.8343    9.4334 C.ar    1  UNL1        0.1402
     24 F          67.9460   96.8403    8.5141 F       1  UNL1       -0.2042
     25 C          66.6201   96.2905   10.6796 C.ar    1  UNL1        0.0310
     26 C          65.9933   95.2845   11.5989 C.ar    1  UNL1        0.0222
     27 C          60.9307   86.7399    9.9708 C.3     1  UNL1        0.0691
     28 C          61.3855   86.1464    8.6704 C.2     1  UNL1        0.0548
     29 O          60.3968   85.9100    7.5674 O.co2   1  UNL1       -0.5488
     30 O          62.8289   85.7893    8.4731 O.co2   1  UNL1       -0.5488
@<TRIPOS>UNITY_ATOM_ATTR
29 1
charge -1
@<TRIPOS>BOND
     1    15    16    1
     2     1    16    1
     3     1     2    1
     4     2     3    1
     5     3     4    1
     6     4     5   ar
     7     5    27    1
     8    27    28    1
     9    28    29   ar
    10    28    30   ar
    11     5     6   ar
    12     6     7   ar
    13     7     8   ar
    14     8     9   ar
    15     9    10    1
    16     9    11   ar
    17    11    12   ar
    18    12    13   ar
    19    13    14    1
    20    16    17    1
    21    17    18    2
    22    17    19    2
    23    17    20    1
    24    20    21   ar
    25    21    22   ar
    26    22    23   ar
    27    23    24    1
    28    23    25   ar
    29    25    26   ar
    30    14     1    1
    31    26    20   ar
    32    13     4   ar
    33    12     6   ar
