@<TRIPOS>MOLECULE
*****
 53 60 0 0 0
SMALL
GASTEIGER

@<TRIPOS>ATOM
      1 C          65.3969   90.7529   14.4539 C.ar    1  UNL1        0.1736
      2 C          64.8682   89.3495   14.4801 C.ar    1  UNL1        0.0548
      3 C          63.9289   88.8817   13.4083 C.ar    1  UNL1        0.0568
      4 C          63.5182   89.8175   12.3103 C.ar    1  UNL1        0.0560
      5 C          64.0469   91.2210   12.2840 C.ar    1  UNL1        0.0445
      6 C          64.9862   91.6888   13.3559 C.ar    1  UNL1        0.1729
      7 C          62.5788   89.3498   11.2384 C.ar    1  UNL1        0.2075
      8 N          61.9624   87.9858   11.1399 N.ar    1  UNL1       -0.1074
      9 N          61.0935   87.9569    9.9175 N.ar    1  UNL1       -0.0406
     10 N          61.1729   89.3031    9.2605 N.ar    1  UNL1       -0.1285
     11 N          62.0909   90.1639   10.0769 N.ar    1  UNL1       -0.1253
     12 C          60.4596   89.7159    8.0073 C.ar    1  UNL1        0.1045
     13 C          61.1658   90.5555    6.9843 C.ar    1  UNL1        0.0206
     14 C          60.4525   90.9683    5.7310 C.ar    1  UNL1       -0.0026
     15 C          59.0331   90.5416    5.5007 C.ar    1  UNL1       -0.0207
     16 C          58.3269   89.7021    6.5237 C.ar    1  UNL1       -0.0026
     17 C          59.0402   89.2892    7.7770 C.ar    1  UNL1        0.0206
     18 C          58.3196   90.9544    4.2474 C.3     1  UNL1        0.0437
     19 C          58.4788   92.3491    3.7186 C.3     1  UNL1        0.0771
     20 N          59.4948   92.6357    2.6530 N.3     1  UNL1       -0.2683
     21 C          59.0518   92.8830    1.2414 C.3     1  UNL1        0.0771
     22 C          60.0678   93.1696    0.1758 C.3     1  UNL1        0.0450
     23 C          61.5268   93.2090    0.5217 C.ar    1  UNL1       -0.0043
     24 C          62.5427   93.4957   -0.5440 C.ar    1  UNL1        0.0944
     25 N          64.0018   93.5351   -0.1981 N.ar    1  UNL1       -0.2427
     26 C          64.4448   93.2879    1.2135 C.ar    1  UNL1        0.0986
     27 C          63.4288   93.0012    2.2792 C.ar    1  UNL1        0.0175
     28 C          61.9699   92.9618    1.9333 C.ar    1  UNL1       -0.0070
     29 C          60.9539   92.6752    2.9989 C.3     1  UNL1        0.0989
     30 N          63.4002   87.4783   13.4345 N.am    1  UNL1       -0.2802
     31 C          64.1424   86.4110   14.1830 C.2     1  UNL1        0.2510
     32 O          65.4133   86.7474   14.9053 O.2     1  UNL1       -0.2698
     33 H          62.5661   87.2575   12.9604 H       1  UNL1        0.1552
     34 C          63.6137   85.0076   14.2092 C.ar    1  UNL1        0.0728
     35 C          62.9601   84.4753   15.4500 C.ar    1  UNL1        0.1033
     36 N          62.4315   83.0718   15.4762 N.ar    1  UNL1       -0.2437
     37 C          62.5564   82.2006   14.2616 C.ar    1  UNL1        0.0813
     38 C          62.0277   80.7971   14.2877 C.ar    1  UNL1        0.0191
     39 C          62.1526   79.9258   13.0731 C.ar    1  UNL1        0.0015
     40 C          62.8061   80.4580   11.8324 C.ar    1  UNL1        0.0001
     41 C          63.3348   81.8615   11.8062 C.ar    1  UNL1        0.0015
     42 C          63.2099   82.7327   13.0208 C.ar    1  UNL1        0.0178
     43 C          63.7386   84.1363   12.9945 C.ar    1  UNL1        0.0076
     44 C          67.7255   91.6579   15.1670 C.3     1  UNL1        0.2526
     45 O          66.3363   91.2207   15.5258 O.3     1  UNL1       -0.4683
     46 O          65.5149   93.0922   13.3297 O.3     1  UNL1       -0.4676
     47 C          65.5334   93.8628   12.0429 C.3     1  UNL1        0.2321
     48 C          66.5485   93.5366   10.9878 C.ar    1  UNL1        0.0212
     49 C          66.8339   94.5203    9.8920 C.ar    1  UNL1       -0.0007
     50 C          67.8490   94.1941    8.8369 C.ar    1  UNL1       -0.0002
     51 C          68.5788   92.8842    8.8777 C.ar    1  UNL1       -0.0000
     52 C          68.2935   91.9005    9.9736 C.ar    1  UNL1       -0.0002
     53 C          67.2783   92.2267   11.0287 C.ar    1  UNL1       -0.0007
@<TRIPOS>BOND
     1    44    45    1
     2    45     1    1
     3     1     2   ar
     4     2     3   ar
     5     3    30    1
     6    30    31   am
     7    31    32    2
     8    31    34    1
     9    34    35   ar
    10    35    36   ar
    11    36    37   ar
    12    37    38   ar
    13    38    39   ar
    14    39    40   ar
    15    40    41   ar
    16    41    42   ar
    17    42    43   ar
    18     3     4   ar
    19     4     7    1
    20     7     8   ar
    21     8     9   ar
    22     9    10   ar
    23    10    12    1
    24    12    13   ar
    25    13    14   ar
    26    14    15   ar
    27    15    18    1
    28    18    19    1
    29    19    20    1
    30    20    21    1
    31    21    22    1
    32    22    23    1
    33    23    24   ar
    34    24    25   ar
    35    25    26   ar
    36    26    27   ar
    37    27    28   ar
    38    28    29    1
    39    15    16   ar
    40    16    17   ar
    41    10    11   ar
    42     4     5   ar
    43     5     6   ar
    44     6    46    1
    45    46    47    1
    46    47    48    1
    47    48    49   ar
    48    49    50   ar
    49    50    51   ar
    50    51    52   ar
    51    52    53   ar
    52     6     1   ar
    53    53    48   ar
    54    43    34   ar
    55    11     7   ar
    56    42    37   ar
    57    17    12   ar
    58    29    20    1
    59    28    23   ar
    60    30    33    1
@<TRIPOS>MOLECULE
*****
 53 60 0 0 0
SMALL
GASTEIGER

@<TRIPOS>ATOM
      1 C          63.4906   85.6432   15.7449 C.ar    1  UNL1        0.1736
      2 C          63.9346   86.8567   14.9832 C.ar    1  UNL1        0.0548
      3 C          63.5491   87.0209   13.5429 C.ar    1  UNL1        0.0568
      4 C          62.7196   85.9715   12.8643 C.ar    1  UNL1        0.0560
      5 C          62.2756   84.7579   13.6259 C.ar    1  UNL1        0.0445
      6 C          62.6611   84.5937   15.0662 C.ar    1  UNL1        0.1729
      7 C          62.3341   86.1356   11.4240 C.ar    1  UNL1        0.2075
      8 N          62.7410   85.2365   10.2944 N.ar    1  UNL1       -0.1074
      9 N          62.1324   85.7729    9.0326 N.ar    1  UNL1       -0.0406
     10 N          61.3494   87.0036    9.3825 N.ar    1  UNL1       -0.1285
     11 N          61.4741   87.2278   10.8604 N.ar    1  UNL1       -0.1253
     12 C          60.5773   87.8597    8.4229 C.ar    1  UNL1        0.1045
     13 C          60.5787   89.3515    8.5803 C.ar    1  UNL1        0.0206
     14 C          59.8066   90.2077    7.6208 C.ar    1  UNL1       -0.0026
     15 C          59.0331   89.5721    6.5037 C.ar    1  UNL1       -0.0207
     16 C          59.0317   88.0804    6.3463 C.ar    1  UNL1       -0.0026
     17 C          59.8038   87.2242    7.3059 C.ar    1  UNL1        0.0206
     18 C          58.2609   90.4282    5.5441 C.3     1  UNL1        0.0437
     19 C          58.7400   91.8126    5.2214 C.3     1  UNL1        0.0771
     20 N          59.9073   92.0065    4.2997 N.3     1  UNL1       -0.2683
     21 C          61.1796   91.2462    4.5306 C.3     1  UNL1        0.0771
     22 C          62.3469   91.4401    3.6088 C.3     1  UNL1        0.0450
     23 C          62.2421   92.3943    2.4562 C.ar    1  UNL1       -0.0043
     24 C          63.4095   92.5882    1.5345 C.ar    1  UNL1        0.0944
     25 N          63.3047   93.5424    0.3819 N.ar    1  UNL1       -0.2427
     26 C          62.0324   94.3027    0.1511 C.ar    1  UNL1        0.0986
     27 C          60.8650   94.1088    1.0728 C.ar    1  UNL1        0.0175
     28 C          60.9698   93.1546    2.2253 C.ar    1  UNL1       -0.0070
     29 C          59.8025   92.9607    3.1471 C.3     1  UNL1        0.0989
     30 N          63.9932   88.2344   12.7813 N.am    1  UNL1       -0.2802
     31 C          63.5608   89.5998   13.2276 C.2     1  UNL1        0.2510
     32 O          62.6845   89.7514   14.4355 O.2     1  UNL1       -0.2698
     33 H          64.5683   88.1348   11.9885 H       1  UNL1        0.1552
     34 C          64.0049   90.8133   12.4659 C.ar    1  UNL1        0.0728
     35 C          63.5367   91.0274   11.0570 C.ar    1  UNL1        0.1033
     36 N          63.9807   92.2409   10.2953 N.ar    1  UNL1       -0.2437
     37 C          64.8929   93.2404   10.9426 C.ar    1  UNL1        0.0813
     38 C          65.3369   94.4539   10.1810 C.ar    1  UNL1        0.0191
     39 C          66.2491   95.4535   10.8282 C.ar    1  UNL1        0.0015
     40 C          66.7172   95.2394   12.2371 C.ar    1  UNL1        0.0001
     41 C          66.2732   94.0259   12.9987 C.ar    1  UNL1        0.0015
     42 C          65.3611   93.0264   12.3515 C.ar    1  UNL1        0.0178
     43 C          64.9170   91.8128   13.1132 C.ar    1  UNL1        0.0076
     44 C          63.1294   86.2247   18.2511 C.3     1  UNL1        0.2526
     45 O          63.8761   85.4791   17.1852 O.3     1  UNL1       -0.4683
     46 O          62.2170   83.3802   15.8278 O.3     1  UNL1       -0.4676
     47 C          62.4871   82.0104   15.2796 C.3     1  UNL1        0.2321
     48 C          62.9279   81.8460   13.8553 C.ar    1  UNL1        0.0212
     49 C          64.2385   82.4200   13.4048 C.ar    1  UNL1       -0.0007
     50 C          64.6793   82.2557   11.9805 C.ar    1  UNL1       -0.0002
     51 C          63.8096   81.5173   11.0066 C.ar    1  UNL1       -0.0000
     52 C          62.4990   80.9433   11.4571 C.ar    1  UNL1       -0.0002
     53 C          62.0582   81.1077   12.8815 C.ar    1  UNL1       -0.0007
@<TRIPOS>BOND
     1    44    45    1
     2    45     1    1
     3     1     2   ar
     4     2     3   ar
     5     3    30    1
     6    30    31   am
     7    31    32    2
     8    31    34    1
     9    34    35   ar
    10    35    36   ar
    11    36    37   ar
    12    37    38   ar
    13    38    39   ar
    14    39    40   ar
    15    40    41   ar
    16    41    42   ar
    17    42    43   ar
    18     3     4   ar
    19     4     7    1
    20     7     8   ar
    21     8     9   ar
    22     9    10   ar
    23    10    12    1
    24    12    13   ar
    25    13    14   ar
    26    14    15   ar
    27    15    18    1
    28    18    19    1
    29    19    20    1
    30    20    21    1
    31    21    22    1
    32    22    23    1
    33    23    24   ar
    34    24    25   ar
    35    25    26   ar
    36    26    27   ar
    37    27    28   ar
    38    28    29    1
    39    15    16   ar
    40    16    17   ar
    41    10    11   ar
    42     4     5   ar
    43     5     6   ar
    44     6    46    1
    45    46    47    1
    46    47    48    1
    47    48    49   ar
    48    49    50   ar
    49    50    51   ar
    50    51    52   ar
    51    52    53   ar
    52     6     1   ar
    53    53    48   ar
    54    43    34   ar
    55    11     7   ar
    56    42    37   ar
    57    17    12   ar
    58    29    20    1
    59    28    23   ar
    60    30    33    1
