@<TRIPOS>MOLECULE
*****
 42 44 0 0 0
SMALL
GASTEIGER

@<TRIPOS>ATOM
      1 C          64.2054   83.7444   15.2770 C.3     1  UNL1        0.0321
      2 C          62.8404   83.1384   15.1377 C.3     1  UNL1        0.1422
      3 O          62.6905   81.7386   14.6202 O.3     1  UNL1       -0.3538
      4 C          61.9411   81.4864   13.3455 C.3     1  UNL1        0.1422
      5 C          62.6564   80.9210   12.1543 C.3     1  UNL1        0.0324
      6 C          63.7584   81.7013   11.5012 C.3     1  UNL1        0.0073
      7 C          63.8748   83.1777   11.7391 C.3     1  UNL1        0.0265
      8 C          61.9800   86.2863   10.1590 C.ar    1  UNL1        0.1053
      9 C          62.2642   86.0803    8.7007 C.ar    1  UNL1        0.0183
     10 C          63.0854   84.9067    8.2552 C.ar    1  UNL1        0.0010
     11 C          63.6222   83.9392    9.2680 C.ar    1  UNL1       -0.0042
     12 C          63.3380   84.1452   10.7263 C.ar    1  UNL1       -0.0209
     13 C          62.5168   85.3188   11.1718 C.ar    1  UNL1        0.0141
     14 O          60.2157   87.2344    9.4603 O.2     1  UNL1       -0.1687
     15 S          61.1588   87.4599   10.6046 S.O2    1  UNL1        0.0070
     16 O          62.1019   87.6853   11.7490 O.2     1  UNL1       -0.1687
     17 C          60.3377   88.6334   11.0502 C.3     1  UNL1        0.1338
     18 C          59.2643   88.6115   12.0977 C.3     1  UNL1        0.0240
     19 C          58.7089   89.9994   12.2214 C.3     1  UNL1        0.0018
     20 C          59.4392   90.8791   11.2502 C.3     1  UNL1        0.0018
     21 C          60.4458   90.0348   10.5264 C.3     1  UNL1        0.0240
     22 C          64.5167   85.0525   14.6121 C.3     1  UNL1        0.0026
     23 C          64.2363   86.3419   15.3255 C.3     1  UNL1        0.0015
     24 C          63.4091   86.3422   16.5767 C.3     1  UNL1        0.0171
     25 C          63.0818   87.6373   17.2591 C.3     1  UNL1        0.0686
     26 N          62.5625   88.7957   16.4602 N.3     1  UNL1       -0.2952
     27 H          61.9971   89.3606   17.0939 H       1  UNL1        0.1233
     28 C          63.5213   89.7311   15.7851 C.3     1  UNL1        0.1028
     29 C          63.2515   90.2009   14.3863 C.3     1  UNL1        0.1484
     30 O          61.9233   89.9257   13.7458 O.3     1  UNL1       -0.3786
     31 H          61.3595   89.4388   14.3671 H       1  UNL1        0.2108
     32 C          64.3098   90.9458   13.6281 C.ar    1  UNL1        0.0056
     33 C          64.0291   91.4431   12.2411 C.ar    1  UNL1        0.0012
     34 C          65.0875   92.1880   11.4828 C.ar    1  UNL1        0.0361
     35 C          66.4266   92.4357   12.1115 C.ar    1  UNL1        0.1320
     36 O          67.4849   93.1806   11.3533 O.3     1  UNL1       -0.5057
     37 C          66.7074   91.9384   13.4986 C.ar    1  UNL1        0.0404
     38 C          65.6490   91.1934   14.2569 C.ar    1  UNL1       -0.0008
     39 H          67.3095   93.4912   10.4869 H       1  UNL1        0.2922
     40 C          68.0465   92.1860   14.1274 C.3     1  UNL1        0.1666
     41 O          69.2995   91.7920   13.4031 O.3     1  UNL1       -0.3771
     42 H          69.3351   90.8261   13.3204 H       1  UNL1        0.2109
@<TRIPOS>BOND
     1    14    15    2
     2    15    16    2
     3    15     8    1
     4     8     9   ar
     5     9    10   ar
     6    10    11   ar
     7    11    12   ar
     8    12     7    1
     9     7     6    1
    10     6     5    1
    11     5     4    1
    12     4     3    1
    13     3     2    1
    14     2     1    1
    15     1    22    1
    16    22    23    1
    17    23    24    1
    18    24    25    1
    19    25    26    1
    20    26    28    1
    21    28    29    1
    22    29    30    1
    23    29    32    1
    24    32    33   ar
    25    33    34   ar
    26    34    35   ar
    27    35    36    1
    28    35    37   ar
    29    37    40    1
    30    40    41    1
    31    37    38   ar
    32    12    13   ar
    33    15    17    1
    34    17    18    1
    35    18    19    1
    36    19    20    1
    37    20    21    1
    38    13     8   ar
    39    21    17    1
    40    38    32   ar
    41    26    27    1
    42    30    31    1
    43    36    39    1
    44    41    42    1
@<TRIPOS>MOLECULE
*****
 42 44 0 0 0
SMALL
GASTEIGER

@<TRIPOS>ATOM
      1 C          62.3588   84.5549   16.0427 C.3     1  UNL1        0.0321
      2 C          62.9936   85.6900   16.7900 C.3     1  UNL1        0.1422
      3 O          62.2784   87.0032   16.9083 O.3     1  UNL1       -0.3538
      4 C          63.0570   88.2621   17.1510 C.3     1  UNL1        0.1422
      5 C          63.1942   89.2813   16.0590 C.3     1  UNL1        0.0324
      6 C          64.0318   88.9791   14.8519 C.3     1  UNL1        0.0073
      7 C          64.0935   89.9584   13.7175 C.3     1  UNL1        0.0265
      8 C          66.0565   93.2642   12.7336 C.ar    1  UNL1        0.1053
      9 C          66.6805   93.6255   14.0489 C.ar    1  UNL1        0.0183
     10 C          66.4421   92.7645   15.2537 C.ar    1  UNL1        0.0010
     11 C          65.5798   91.5421   15.1432 C.ar    1  UNL1       -0.0042
     12 C          64.9558   91.1808   13.8279 C.ar    1  UNL1       -0.0209
     13 C          65.1942   92.0419   12.6231 C.ar    1  UNL1        0.0141
     14 O          66.1171   95.3535   12.3712 O.2     1  UNL1       -0.1687
     15 S          66.2949   94.1253   11.5286 S.O2    1  UNL1        0.0070
     16 O          66.4726   92.8972   10.6860 O.2     1  UNL1       -0.1687
     17 C          66.5332   94.9864   10.3238 C.3     1  UNL1        0.1338
     18 C          67.6142   94.7934    9.3019 C.3     1  UNL1        0.0240
     19 C          67.4815   95.8794    8.2758 C.3     1  UNL1        0.0018
     20 C          66.3184   96.7437    8.6636 C.3     1  UNL1        0.0018
     21 C          65.7323   96.1918    9.9293 C.3     1  UNL1        0.0240
     22 C          63.2179   83.5490   15.3355 C.3     1  UNL1        0.0026
     23 C          62.5988   82.5767   14.3756 C.3     1  UNL1        0.0015
     24 C          63.4711   81.6660   13.5634 C.3     1  UNL1        0.0171
     25 C          63.6648   81.9228   12.0983 C.3     1  UNL1        0.0686
     26 N          64.0429   83.2935   11.6206 N.3     1  UNL1       -0.2952
     27 H          64.7688   83.1695   10.9149 H       1  UNL1        0.1233
     28 C          63.0029   84.1914   11.0188 C.3     1  UNL1        0.1028
     29 C          62.7586   85.5519   11.6016 C.3     1  UNL1        0.1484
     30 O          63.1922   85.8555   13.0051 O.3     1  UNL1       -0.3786
     31 H          63.6103   85.0701   13.3914 H       1  UNL1        0.2108
     32 C          62.0806   86.6086   10.7808 C.ar    1  UNL1        0.0056
     33 C          62.3063   88.0588   11.0908 C.ar    1  UNL1        0.0012
     34 C          61.6284   89.1155   10.2700 C.ar    1  UNL1        0.0361
     35 C          60.7248   88.7222    9.1393 C.ar    1  UNL1        0.1320
     36 O          60.0468   89.7789    8.3185 O.3     1  UNL1       -0.5057
     37 C          60.4990   87.2720    8.8293 C.ar    1  UNL1        0.0404
     38 C          61.1769   86.2152    9.6500 C.ar    1  UNL1       -0.0008
     39 H          60.1878   90.6848    8.5122 H       1  UNL1        0.2922
     40 C          59.5953   86.8786    7.6985 C.3     1  UNL1        0.1666
     41 O          58.1501   86.5772    7.9636 O.3     1  UNL1       -0.3771
     42 H          58.0813   85.7797    8.5113 H       1  UNL1        0.2109
@<TRIPOS>BOND
     1    14    15    2
     2    15    16    2
     3    15     8    1
     4     8     9   ar
     5     9    10   ar
     6    10    11   ar
     7    11    12   ar
     8    12     7    1
     9     7     6    1
    10     6     5    1
    11     5     4    1
    12     4     3    1
    13     3     2    1
    14     2     1    1
    15     1    22    1
    16    22    23    1
    17    23    24    1
    18    24    25    1
    19    25    26    1
    20    26    28    1
    21    28    29    1
    22    29    30    1
    23    29    32    1
    24    32    33   ar
    25    33    34   ar
    26    34    35   ar
    27    35    36    1
    28    35    37   ar
    29    37    40    1
    30    40    41    1
    31    37    38   ar
    32    12    13   ar
    33    15    17    1
    34    17    18    1
    35    18    19    1
    36    19    20    1
    37    20    21    1
    38    13     8   ar
    39    21    17    1
    40    38    32   ar
    41    26    27    1
    42    30    31    1
    43    36    39    1
    44    41    42    1
@<TRIPOS>MOLECULE
*****
 42 44 0 0 0
SMALL
GASTEIGER

@<TRIPOS>ATOM
      1 C          59.2838   87.0773    7.8207 C.3     1  UNL1        0.0321
      2 C          60.5257   86.2429    7.9288 C.3     1  UNL1        0.1422
      3 O          61.0475   85.8460    9.2779 O.3     1  UNL1       -0.3538
      4 C          62.5195   85.6433    9.4828 C.3     1  UNL1        0.1422
      5 C          63.2055   84.4574    8.8719 C.3     1  UNL1        0.0324
      6 C          64.1430   83.6262    9.6967 C.3     1  UNL1        0.0073
      7 C          63.6956   82.2977   10.2304 C.3     1  UNL1        0.0265
      8 C          62.8584   83.2426   13.9928 C.ar    1  UNL1        0.1053
      9 C          62.3503   81.9290   14.5087 C.ar    1  UNL1        0.0183
     10 C          62.2906   80.7383   13.5985 C.ar    1  UNL1        0.0010
     11 C          62.7390   80.8612   12.1724 C.ar    1  UNL1       -0.0042
     12 C          63.2472   82.1748   11.6565 C.ar    1  UNL1       -0.0209
     13 C          63.3069   83.3655   12.5667 C.ar    1  UNL1        0.0141
     14 O          62.9496   85.3431   13.7109 O.2     1  UNL1       -0.1687
     15 S          62.9181   84.4335   14.9031 S.O2    1  UNL1        0.0070
     16 O          62.8866   83.5238   16.0953 O.2     1  UNL1       -0.1687
     17 C          62.9778   85.6242   15.8133 C.3     1  UNL1        0.1338
     18 C          62.3601   85.7238   17.1766 C.3     1  UNL1        0.0240
     19 C          62.6663   87.0856   17.7258 C.3     1  UNL1        0.0018
     20 C          63.4732   87.8277   16.7019 C.3     1  UNL1        0.0018
     21 C          63.6657   86.9245   15.5199 C.3     1  UNL1        0.0240
     22 C          59.3838   88.5740    7.8167 C.3     1  UNL1        0.0026
     23 C          60.4437   89.2570    8.6292 C.3     1  UNL1        0.0015
     24 C          60.1278   89.7525   10.0093 C.3     1  UNL1        0.0171
     25 C          60.0464   88.7855   11.1531 C.3     1  UNL1        0.0686
     26 N          61.2489   87.9754   11.5373 N.3     1  UNL1       -0.2952
     27 H          61.3561   87.2521   10.8261 H       1  UNL1        0.1233
     28 C          62.5855   88.6401   11.6838 C.3     1  UNL1        0.1028
     29 C          62.7488   89.7969   12.6247 C.3     1  UNL1        0.1484
     30 O          61.8923   89.8917   13.8524 O.3     1  UNL1       -0.3786
     31 H          61.2913   89.1311   13.8869 H       1  UNL1        0.2108
     32 C          63.7685   90.8589   12.3378 C.ar    1  UNL1        0.0056
     33 C          63.9025   91.4150   10.9511 C.ar    1  UNL1        0.0012
     34 C          64.9222   92.4770   10.6642 C.ar    1  UNL1        0.0361
     35 C          65.8079   92.9829   11.7639 C.ar    1  UNL1        0.1320
     36 O          66.8276   94.0449   11.4770 O.3     1  UNL1       -0.5057
     37 C          65.6740   92.4269   13.1507 C.ar    1  UNL1        0.0404
     38 C          64.6542   91.3649   13.4376 C.ar    1  UNL1       -0.0008
     39 H          66.9113   94.3923   10.6108 H       1  UNL1        0.2922
     40 C          66.5597   92.9329   14.2504 C.3     1  UNL1        0.1666
     41 O          66.7470   94.4085   14.4435 O.3     1  UNL1       -0.3771
     42 H          67.2124   94.7784   13.6770 H       1  UNL1        0.2109
@<TRIPOS>BOND
     1    14    15    2
     2    15    16    2
     3    15     8    1
     4     8     9   ar
     5     9    10   ar
     6    10    11   ar
     7    11    12   ar
     8    12     7    1
     9     7     6    1
    10     6     5    1
    11     5     4    1
    12     4     3    1
    13     3     2    1
    14     2     1    1
    15     1    22    1
    16    22    23    1
    17    23    24    1
    18    24    25    1
    19    25    26    1
    20    26    28    1
    21    28    29    1
    22    29    30    1
    23    29    32    1
    24    32    33   ar
    25    33    34   ar
    26    34    35   ar
    27    35    36    1
    28    35    37   ar
    29    37    40    1
    30    40    41    1
    31    37    38   ar
    32    12    13   ar
    33    15    17    1
    34    17    18    1
    35    18    19    1
    36    19    20    1
    37    20    21    1
    38    13     8   ar
    39    21    17    1
    40    38    32   ar
    41    26    27    1
    42    30    31    1
    43    36    39    1
    44    41    42    1
@<TRIPOS>MOLECULE
*****
 42 44 0 0 0
SMALL
GASTEIGER

@<TRIPOS>ATOM
      1 C          63.4132   91.4072   11.7002 C.3     1  UNL1        0.0321
      2 C          62.6477   90.1348   11.4880 C.3     1  UNL1        0.1422
      3 O          61.1697   90.0976   11.7413 O.3     1  UNL1       -0.3538
      4 C          60.2547   89.4451   10.7478 C.3     1  UNL1        0.1422
      5 C          60.6253   89.4140    9.2946 C.3     1  UNL1        0.0324
      6 C          59.8070   88.6089    8.3290 C.3     1  UNL1        0.0073
      7 C          59.6428   87.1322    8.5344 C.3     1  UNL1        0.0265
      8 C          62.4081   84.9987   10.4189 C.ar    1  UNL1        0.1053
      9 C          63.2529   84.5469    9.2647 C.ar    1  UNL1        0.0183
     10 C          62.8943   84.9568    7.8671 C.ar    1  UNL1        0.0010
     11 C          61.6910   85.8186    7.6237 C.ar    1  UNL1       -0.0042
     12 C          60.8462   86.2704    8.7778 C.ar    1  UNL1       -0.0209
     13 C          61.2047   85.8605   10.1754 C.ar    1  UNL1        0.0141
     14 O          63.4204   83.3479   11.2849 O.2     1  UNL1       -0.1687
     15 S          62.7666   84.5888   11.8166 S.O2    1  UNL1        0.0070
     16 O          62.1128   85.8296   12.3483 O.2     1  UNL1       -0.1687
     17 C          63.1251   84.1788   13.2142 C.3     1  UNL1        0.1338
     18 C          62.1726   84.0426   14.3649 C.3     1  UNL1        0.0240
     19 C          62.9579   83.6127   15.5684 C.3     1  UNL1        0.0018
     20 C          64.3959   83.4831   15.1614 C.3     1  UNL1        0.0018
     21 C          64.4992   83.8330   13.7065 C.3     1  UNL1        0.0240
     22 C          64.2663   91.9620   10.5981 C.3     1  UNL1        0.0026
     23 C          65.6982   92.3199   10.8659 C.3     1  UNL1        0.0015
     24 C          66.1864   93.7122   10.5957 C.3     1  UNL1        0.0171
     25 C          66.2842   94.7035   11.7171 C.3     1  UNL1        0.0686
     26 N          65.8579   94.3143   13.1016 N.3     1  UNL1       -0.2952
     27 H          65.2337   93.5136   13.0032 H       1  UNL1        0.1233
     28 C          66.8875   93.9374   14.1252 C.3     1  UNL1        0.1028
     29 C          67.0714   92.4992   14.5098 C.3     1  UNL1        0.1484
     30 O          68.4335   91.8742   14.4468 O.3     1  UNL1       -0.3786
     31 H          69.0771   92.5319   14.1402 H       1  UNL1        0.2108
     32 C          65.8931   91.6861   14.9575 C.ar    1  UNL1        0.0056
     33 C          65.0204   92.1811   16.0726 C.ar    1  UNL1        0.0012
     34 C          63.8421   91.3679   16.5202 C.ar    1  UNL1        0.0361
     35 C          63.5365   90.0598   15.8529 C.ar    1  UNL1        0.1320
     36 O          62.3582   89.2467   16.3006 O.3     1  UNL1       -0.5057
     37 C          64.4092   89.5648   14.7378 C.ar    1  UNL1        0.0404
     38 C          65.5875   90.3779   14.2901 C.ar    1  UNL1       -0.0008
     39 H          61.8130   89.5559   16.9971 H       1  UNL1        0.2922
     40 C          64.1036   88.2567   14.0704 C.3     1  UNL1        0.1666
     41 O          63.7336   87.0612   14.8974 O.3     1  UNL1       -0.3771
     42 H          64.4936   86.7942   15.4378 H       1  UNL1        0.2109
@<TRIPOS>BOND
     1    14    15    2
     2    15    16    2
     3    15     8    1
     4     8     9   ar
     5     9    10   ar
     6    10    11   ar
     7    11    12   ar
     8    12     7    1
     9     7     6    1
    10     6     5    1
    11     5     4    1
    12     4     3    1
    13     3     2    1
    14     2     1    1
    15     1    22    1
    16    22    23    1
    17    23    24    1
    18    24    25    1
    19    25    26    1
    20    26    28    1
    21    28    29    1
    22    29    30    1
    23    29    32    1
    24    32    33   ar
    25    33    34   ar
    26    34    35   ar
    27    35    36    1
    28    35    37   ar
    29    37    40    1
    30    40    41    1
    31    37    38   ar
    32    12    13   ar
    33    15    17    1
    34    17    18    1
    35    18    19    1
    36    19    20    1
    37    20    21    1
    38    13     8   ar
    39    21    17    1
    40    38    32   ar
    41    26    27    1
    42    30    31    1
    43    36    39    1
    44    41    42    1
@<TRIPOS>MOLECULE
*****
 42 44 0 0 0
SMALL
GASTEIGER

@<TRIPOS>ATOM
      1 C          67.5963   93.8542    8.8335 C.3     1  UNL1        0.0321
      2 C          67.7971   92.8061    9.8876 C.3     1  UNL1        0.1422
      3 O          66.6683   92.4386   10.8045 O.3     1  UNL1       -0.3538
      4 C          65.2486   92.5981   10.3475 C.3     1  UNL1        0.1422
      5 C          64.1821   91.6883   10.8815 C.3     1  UNL1        0.0324
      6 C          62.9997   91.3369   10.0280 C.3     1  UNL1        0.0073
      7 C          61.8394   90.5952   10.6227 C.3     1  UNL1        0.0265
      8 C          61.7625   86.6532   10.1700 C.ar    1  UNL1        0.1053
      9 C          60.7467   86.5134    9.0753 C.ar    1  UNL1        0.0183
     10 C          60.0951   87.7341    8.4963 C.ar    1  UNL1        0.0010
     11 C          60.4593   89.0947    9.0121 C.ar    1  UNL1       -0.0042
     12 C          61.4752   89.2346   10.1069 C.ar    1  UNL1       -0.0209
     13 C          62.1267   88.0139   10.6858 C.ar    1  UNL1        0.0141
     14 O          61.9658   85.8435   12.1201 O.2     1  UNL1       -0.1687
     15 S          62.4141   85.4325   10.7490 S.O2    1  UNL1        0.0070
     16 O          62.8624   85.0214    9.3779 O.2     1  UNL1       -0.1687
     17 C          63.0657   84.2118   11.3280 C.3     1  UNL1        0.1338
     18 C          63.0724   83.8185   12.7755 C.3     1  UNL1        0.0240
     19 C          63.8358   82.5337   12.9033 C.3     1  UNL1        0.0018
     20 C          64.3009   82.1328   11.5347 C.3     1  UNL1        0.0018
     21 C          63.8249   83.1699   10.5611 C.3     1  UNL1        0.0240
     22 C          67.5988   95.3063    9.2096 C.3     1  UNL1        0.0026
     23 C          66.3016   96.0445    9.3593 C.3     1  UNL1        0.0015
     24 C          65.6936   96.2245   10.7187 C.3     1  UNL1        0.0171
     25 C          66.4512   95.7992   11.9414 C.3     1  UNL1        0.0686
     26 N          66.0488   94.5563   12.6784 N.3     1  UNL1       -0.2952
     27 H          66.2036   93.7738   12.0427 H       1  UNL1        0.1233
     28 C          66.7188   94.2017   13.9728 C.3     1  UNL1        0.1028
     29 C          66.9708   92.7637   14.3176 C.3     1  UNL1        0.1484
     30 O          68.3562   92.1987   14.2116 O.3     1  UNL1       -0.3786
     31 H          68.9652   92.8903   13.9087 H       1  UNL1        0.2108
     32 C          65.8372   91.8909   14.7685 C.ar    1  UNL1        0.0056
     33 C          65.1226   92.1931   16.0522 C.ar    1  UNL1        0.0012
     34 C          63.9891   91.3202   16.5030 C.ar    1  UNL1        0.0361
     35 C          63.5702   90.1452   15.6701 C.ar    1  UNL1        0.1320
     36 O          62.4366   89.2724   16.1209 O.3     1  UNL1       -0.5057
     37 C          64.2848   89.8430   14.3863 C.ar    1  UNL1        0.0404
     38 C          65.4183   90.7158   13.9355 C.ar    1  UNL1       -0.0008
     39 H          61.9902   89.4611   16.9228 H       1  UNL1        0.2922
     40 C          63.8658   88.6680   13.5534 C.3     1  UNL1        0.1666
     41 O          63.8843   87.2878   14.1405 O.3     1  UNL1       -0.3771
     42 H          64.7994   87.0312   14.3346 H       1  UNL1        0.2109
@<TRIPOS>BOND
     1    14    15    2
     2    15    16    2
     3    15     8    1
     4     8     9   ar
     5     9    10   ar
     6    10    11   ar
     7    11    12   ar
     8    12     7    1
     9     7     6    1
    10     6     5    1
    11     5     4    1
    12     4     3    1
    13     3     2    1
    14     2     1    1
    15     1    22    1
    16    22    23    1
    17    23    24    1
    18    24    25    1
    19    25    26    1
    20    26    28    1
    21    28    29    1
    22    29    30    1
    23    29    32    1
    24    32    33   ar
    25    33    34   ar
    26    34    35   ar
    27    35    36    1
    28    35    37   ar
    29    37    40    1
    30    40    41    1
    31    37    38   ar
    32    12    13   ar
    33    15    17    1
    34    17    18    1
    35    18    19    1
    36    19    20    1
    37    20    21    1
    38    13     8   ar
    39    21    17    1
    40    38    32   ar
    41    26    27    1
    42    30    31    1
    43    36    39    1
    44    41    42    1
@<TRIPOS>MOLECULE
*****
 42 44 0 0 0
SMALL
GASTEIGER

@<TRIPOS>ATOM
      1 C          66.6510   92.7657   12.4026 C.3     1  UNL1        0.0321
      2 C          66.8835   93.3523   13.7634 C.3     1  UNL1        0.1422
      3 O          65.8794   93.1332   14.8560 O.3     1  UNL1       -0.3538
      4 C          65.5864   91.7432   15.3377 C.3     1  UNL1        0.1422
      5 C          64.1909   91.1993   15.2547 C.3     1  UNL1        0.0324
      6 C          63.9050   89.9935   14.4095 C.3     1  UNL1        0.0073
      7 C          64.6396   88.7101   14.6610 C.3     1  UNL1        0.0265
      8 C          63.0972   85.1045   15.2691 C.ar    1  UNL1        0.1053
      9 C          62.5355   85.2657   16.6505 C.ar    1  UNL1        0.0183
     10 C          62.6752   86.5751   17.3688 C.ar    1  UNL1        0.0010
     11 C          63.3766   87.7232   16.7056 C.ar    1  UNL1       -0.0042
     12 C          63.9382   87.5620   15.3241 C.ar    1  UNL1       -0.0209
     13 C          63.7985   86.2526   14.6059 C.ar    1  UNL1        0.0141
     14 O          63.7770   83.1247   15.6133 O.2     1  UNL1       -0.1687
     15 S          62.9575   83.7950   14.5507 S.O2    1  UNL1        0.0070
     16 O          62.1380   84.4653   13.4881 O.2     1  UNL1       -0.1687
     17 C          62.8178   82.4856   13.8324 C.3     1  UNL1        0.1338
     18 C          61.9843   81.3205   14.2772 C.3     1  UNL1        0.0240
     19 C          62.1385   80.2262   13.2629 C.3     1  UNL1        0.0018
     20 C          63.0673   80.7151   12.1913 C.3     1  UNL1        0.0018
     21 C          63.4872   82.1115   12.5433 C.3     1  UNL1        0.0240
     22 C          65.4186   93.1304   11.6292 C.3     1  UNL1        0.0026
     23 C          64.7216   92.0952   10.7970 C.3     1  UNL1        0.0015
     24 C          63.6200   91.2704   11.3937 C.3     1  UNL1        0.0171
     25 C          62.9559   90.2021   10.5766 C.3     1  UNL1        0.0686
     26 N          61.6721   90.4962    9.8586 N.3     1  UNL1       -0.2952
     27 H          61.7157   90.0065    8.9650 H       1  UNL1        0.1233
     28 C          60.3603   90.1324   10.4884 C.3     1  UNL1        0.1028
     29 C          60.0206   88.6922   10.7350 C.3     1  UNL1        0.1484
     30 O          59.4610   88.2701   12.0612 O.3     1  UNL1       -0.3786
     31 H          59.3826   89.0443   12.6402 H       1  UNL1        0.2108
     32 C          60.2404   87.6743    9.6554 C.ar    1  UNL1        0.0056
     33 C          59.1676   87.4146    8.6398 C.ar    1  UNL1        0.0012
     34 C          59.3874   86.3967    7.5602 C.ar    1  UNL1        0.0361
     35 C          60.6801   85.6385    7.4963 C.ar    1  UNL1        0.1320
     36 O          60.8999   84.6205    6.4167 O.3     1  UNL1       -0.5057
     37 C          61.7529   85.8981    8.5120 C.ar    1  UNL1        0.0404
     38 C          61.5331   86.9161    9.5915 C.ar    1  UNL1       -0.0008
     39 H          60.2297   84.4583    5.7822 H       1  UNL1        0.2922
     40 C          63.0456   85.1399    8.4480 C.3     1  UNL1        0.1666
     41 O          63.4654   84.2750    9.5994 O.3     1  UNL1       -0.3771
     42 H          63.6416   84.8312   10.3742 H       1  UNL1        0.2109
@<TRIPOS>BOND
     1    14    15    2
     2    15    16    2
     3    15     8    1
     4     8     9   ar
     5     9    10   ar
     6    10    11   ar
     7    11    12   ar
     8    12     7    1
     9     7     6    1
    10     6     5    1
    11     5     4    1
    12     4     3    1
    13     3     2    1
    14     2     1    1
    15     1    22    1
    16    22    23    1
    17    23    24    1
    18    24    25    1
    19    25    26    1
    20    26    28    1
    21    28    29    1
    22    29    30    1
    23    29    32    1
    24    32    33   ar
    25    33    34   ar
    26    34    35   ar
    27    35    36    1
    28    35    37   ar
    29    37    40    1
    30    40    41    1
    31    37    38   ar
    32    12    13   ar
    33    15    17    1
    34    17    18    1
    35    18    19    1
    36    19    20    1
    37    20    21    1
    38    13     8   ar
    39    21    17    1
    40    38    32   ar
    41    26    27    1
    42    30    31    1
    43    36    39    1
    44    41    42    1
@<TRIPOS>MOLECULE
*****
 42 44 0 0 0
SMALL
GASTEIGER

@<TRIPOS>ATOM
      1 C          62.8170   82.9332   14.9290 C.3     1  UNL1        0.0321
      2 C          62.5974   84.3797   14.5984 C.3     1  UNL1        0.1422
      3 O          62.6423   85.4126   15.6851 O.3     1  UNL1       -0.3538
      4 C          63.9276   86.1218   15.9932 C.3     1  UNL1        0.1422
      5 C          64.6396   86.8855   14.9162 C.3     1  UNL1        0.0324
      6 C          63.9439   88.0111   14.2098 C.3     1  UNL1        0.0073
      7 C          63.5698   89.2526   14.9640 C.3     1  UNL1        0.0265
      8 C          65.9212   92.0807   13.4731 C.ar    1  UNL1        0.1053
      9 C          66.1661   92.9181   14.6932 C.ar    1  UNL1        0.0183
     10 C          65.5456   92.5337   16.0035 C.ar    1  UNL1        0.0010
     11 C          64.6801   91.3118   16.0938 C.ar    1  UNL1       -0.0042
     12 C          64.4352   90.4744   14.8737 C.ar    1  UNL1       -0.0209
     13 C          65.0557   90.8588   13.5633 C.ar    1  UNL1        0.0141
     14 O          67.9069   92.2532   12.7469 O.2     1  UNL1       -0.1687
     15 S          66.5417   92.4651   12.1626 S.O2    1  UNL1        0.0070
     16 O          65.1766   92.6769   11.5783 O.2     1  UNL1       -0.1687
     17 C          67.1623   92.8494   10.8522 C.3     1  UNL1        0.1338
     18 C          68.1237   92.0190   10.0547 C.3     1  UNL1        0.0240
     19 C          68.4860   92.7880    8.8188 C.3     1  UNL1        0.0018
     20 C          67.7485   94.0938    8.8526 C.3     1  UNL1        0.0018
     21 C          66.9304   94.1317   10.1093 C.3     1  UNL1        0.0240
     22 C          61.9545   81.8804   14.2982 C.3     1  UNL1        0.0026
     23 C          62.5232   80.9776   13.2439 C.3     1  UNL1        0.0015
     24 C          62.7575   81.4988   11.8570 C.3     1  UNL1        0.0171
     25 C          64.0362   82.2113   11.5296 C.3     1  UNL1        0.0686
     26 N          64.0619   83.7091   11.4533 N.3     1  UNL1       -0.2952
     27 H          64.7279   83.9553   10.7211 H       1  UNL1        0.1233
     28 C          62.8003   84.4671   11.1637 C.3     1  UNL1        0.1028
     29 C          62.6594   85.2252    9.8770 C.3     1  UNL1        0.1484
     30 O          63.1842   84.6392    8.5999 O.3     1  UNL1       -0.3786
     31 H          63.5812   83.7729    8.7808 H       1  UNL1        0.2108
     32 C          61.9937   86.5694    9.8676 C.ar    1  UNL1        0.0056
     33 C          62.2696   87.5507   10.9680 C.ar    1  UNL1        0.0012
     34 C          61.6039   88.8949   10.9586 C.ar    1  UNL1        0.0361
     35 C          60.6624   89.2577    9.8488 C.ar    1  UNL1        0.1320
     36 O          59.9967   90.6019    9.8393 O.3     1  UNL1       -0.5057
     37 C          60.3865   88.2764    8.7483 C.ar    1  UNL1        0.0404
     38 C          61.0521   86.9323    8.7577 C.ar    1  UNL1       -0.0008
     39 H          60.1690   91.2149   10.5267 H       1  UNL1        0.2922
     40 C          59.4449   88.6393    7.6385 C.3     1  UNL1        0.1666
     41 O          59.7030   89.8592    6.8048 O.3     1  UNL1       -0.3771
     42 H          59.6167   90.6522    7.3567 H       1  UNL1        0.2109
@<TRIPOS>BOND
     1    14    15    2
     2    15    16    2
     3    15     8    1
     4     8     9   ar
     5     9    10   ar
     6    10    11   ar
     7    11    12   ar
     8    12     7    1
     9     7     6    1
    10     6     5    1
    11     5     4    1
    12     4     3    1
    13     3     2    1
    14     2     1    1
    15     1    22    1
    16    22    23    1
    17    23    24    1
    18    24    25    1
    19    25    26    1
    20    26    28    1
    21    28    29    1
    22    29    30    1
    23    29    32    1
    24    32    33   ar
    25    33    34   ar
    26    34    35   ar
    27    35    36    1
    28    35    37   ar
    29    37    40    1
    30    40    41    1
    31    37    38   ar
    32    12    13   ar
    33    15    17    1
    34    17    18    1
    35    18    19    1
    36    19    20    1
    37    20    21    1
    38    13     8   ar
    39    21    17    1
    40    38    32   ar
    41    26    27    1
    42    30    31    1
    43    36    39    1
    44    41    42    1
@<TRIPOS>MOLECULE
*****
 42 44 0 0 0
SMALL
GASTEIGER

@<TRIPOS>ATOM
      1 C          64.2190   84.5409   15.1663 C.3     1  UNL1        0.0321
      2 C          62.7225   84.4801   15.2500 C.3     1  UNL1        0.1422
      3 O          61.9597   83.5380   14.3666 O.3     1  UNL1       -0.3538
      4 C          62.1358   82.0564   14.5210 C.3     1  UNL1        0.1422
      5 C          62.7721   81.2582   13.4219 C.3     1  UNL1        0.0324
      6 C          62.8404   81.8175   12.0317 C.3     1  UNL1        0.0073
      7 C          63.7256   82.9924   11.7386 C.3     1  UNL1        0.0265
      8 C          62.0735   86.2305   10.1463 C.ar    1  UNL1        0.1053
      9 C          62.4561   86.0646    8.7054 C.ar    1  UNL1        0.0183
     10 C          63.2618   84.8746    8.2757 C.ar    1  UNL1        0.0010
     11 C          63.6850   83.8506    9.2867 C.ar    1  UNL1       -0.0042
     12 C          63.3024   84.0165   10.7276 C.ar    1  UNL1       -0.0209
     13 C          62.4967   85.2064   11.1573 C.ar    1  UNL1        0.0141
     14 O          60.9467   86.7353   11.8712 O.2     1  UNL1       -0.1687
     15 S          61.2678   87.4205   10.5761 S.O2    1  UNL1        0.0070
     16 O          61.5888   88.1058    9.2811 O.2     1  UNL1       -0.1687
     17 C          60.4620   88.6104   11.0060 C.3     1  UNL1        0.1338
     18 C          59.4462   88.6354   12.1094 C.3     1  UNL1        0.0240
     19 C          58.8870   90.0247   12.1933 C.3     1  UNL1        0.0018
     20 C          59.5573   90.8584   11.1417 C.3     1  UNL1        0.0018
     21 C          60.5307   89.9843   10.4079 C.3     1  UNL1        0.0240
     22 C          64.9037   85.8528   14.9205 C.3     1  UNL1        0.0026
     23 C          64.1827   86.9511   14.1967 C.3     1  UNL1        0.0015
     24 C          64.1962   88.3466   14.7466 C.3     1  UNL1        0.0171
     25 C          63.5093   89.4528   14.0019 C.3     1  UNL1        0.0686
     26 N          63.3364   90.7962   14.6463 N.3     1  UNL1       -0.2952
     27 H          62.3635   90.8555   14.9469 H       1  UNL1        0.1233
     28 C          64.1787   91.1751   15.8283 C.3     1  UNL1        0.1028
     29 C          65.3338   92.1164   15.6552 C.3     1  UNL1        0.1484
     30 O          65.7180   93.0448   16.7689 O.3     1  UNL1       -0.3786
     31 H          65.1230   92.9090   17.5229 H       1  UNL1        0.2108
     32 C          66.1044   92.1293   14.3684 C.ar    1  UNL1        0.0056
     33 C          67.5494   91.7271   14.3556 C.ar    1  UNL1        0.0012
     34 C          68.3201   91.7400   13.0687 C.ar    1  UNL1        0.0361
     35 C          67.6458   92.1550   11.7948 C.ar    1  UNL1        0.1320
     36 O          68.4165   92.1679   10.5080 O.3     1  UNL1       -0.5057
     37 C          66.2008   92.5572   11.8076 C.ar    1  UNL1        0.0404
     38 C          65.4301   92.5443   13.0944 C.ar    1  UNL1       -0.0008
     39 H          69.3192   91.9167   10.5000 H       1  UNL1        0.2922
     40 C          65.5264   92.9722   10.5336 C.3     1  UNL1        0.1666
     41 O          66.0343   94.1579    9.7681 O.3     1  UNL1       -0.3771
     42 H          65.9003   94.9629   10.2924 H       1  UNL1        0.2109
@<TRIPOS>BOND
     1    14    15    2
     2    15    16    2
     3    15     8    1
     4     8     9   ar
     5     9    10   ar
     6    10    11   ar
     7    11    12   ar
     8    12     7    1
     9     7     6    1
    10     6     5    1
    11     5     4    1
    12     4     3    1
    13     3     2    1
    14     2     1    1
    15     1    22    1
    16    22    23    1
    17    23    24    1
    18    24    25    1
    19    25    26    1
    20    26    28    1
    21    28    29    1
    22    29    30    1
    23    29    32    1
    24    32    33   ar
    25    33    34   ar
    26    34    35   ar
    27    35    36    1
    28    35    37   ar
    29    37    40    1
    30    40    41    1
    31    37    38   ar
    32    12    13   ar
    33    15    17    1
    34    17    18    1
    35    18    19    1
    36    19    20    1
    37    20    21    1
    38    13     8   ar
    39    21    17    1
    40    38    32   ar
    41    26    27    1
    42    30    31    1
    43    36    39    1
    44    41    42    1
@<TRIPOS>MOLECULE
*****
 42 44 0 0 0
SMALL
GASTEIGER

@<TRIPOS>ATOM
      1 C          62.7450   83.0306   14.8852 C.3     1  UNL1        0.0321
      2 C          62.2197   84.4244   14.7081 C.3     1  UNL1        0.1422
      3 O          62.7764   85.5463   15.5336 O.3     1  UNL1       -0.3538
      4 C          64.2161   85.9414   15.3886 C.3     1  UNL1        0.1422
      5 C          64.5868   87.1314   14.5540 C.3     1  UNL1        0.0324
      6 C          64.0575   88.4896   14.9076 C.3     1  UNL1        0.0073
      7 C          63.9701   89.5572   13.8575 C.3     1  UNL1        0.0265
      8 C          65.9032   92.8883   12.8999 C.ar    1  UNL1        0.1053
      9 C          66.4472   93.2948   14.2373 C.ar    1  UNL1        0.0183
     10 C          66.1655   92.4555   15.4481 C.ar    1  UNL1        0.0010
     11 C          65.3398   91.2096   15.3215 C.ar    1  UNL1       -0.0042
     12 C          64.7958   90.8031   13.9841 C.ar    1  UNL1       -0.0209
     13 C          65.0775   91.6424   12.7733 C.ar    1  UNL1        0.0141
     14 O          66.1759   94.9613   12.5420 O.2     1  UNL1       -0.1687
     15 S          66.1849   93.7276   11.6890 S.O2    1  UNL1        0.0070
     16 O          66.1939   92.4939   10.8359 O.2     1  UNL1       -0.1687
     17 C          66.4666   94.5669   10.4781 C.3     1  UNL1        0.1338
     18 C          65.7086   95.7913   10.0583 C.3     1  UNL1        0.0240
     19 C          66.3292   96.3103    8.7952 C.3     1  UNL1        0.0018
     20 C          67.4709   95.4067    8.4344 C.3     1  UNL1        0.0018
     21 C          67.5557   94.3292    9.4745 C.3     1  UNL1        0.0240
     22 C          62.0415   81.8759   14.2357 C.3     1  UNL1        0.0026
     23 C          62.7847   80.9823   13.2875 C.3     1  UNL1        0.0015
     24 C          63.1071   81.4607   11.9029 C.3     1  UNL1        0.0171
     25 C          64.0698   82.5940   11.7061 C.3     1  UNL1        0.0686
     26 N          63.9502   83.4790   10.5010 N.3     1  UNL1       -0.2952
     27 H          63.7015   82.8763    9.7166 H       1  UNL1        0.1233
     28 C          62.9725   84.6166   10.4999 C.3     1  UNL1        0.1028
     29 C          62.6470   85.3246    9.2182 C.3     1  UNL1        0.1484
     30 O          63.0709   84.7336    7.9063 O.3     1  UNL1       -0.3786
     31 H          63.5406   83.8997    8.0641 H       1  UNL1        0.2108
     32 C          61.8976   86.6237    9.2483 C.ar    1  UNL1        0.0056
     33 C          60.5679   86.7385    8.5638 C.ar    1  UNL1        0.0012
     34 C          59.8185   88.0375    8.5940 C.ar    1  UNL1        0.0361
     35 C          60.3989   89.2218    9.3086 C.ar    1  UNL1        0.1320
     36 O          59.6495   90.5208    9.3388 O.3     1  UNL1       -0.5057
     37 C          61.7287   89.1070    9.9932 C.ar    1  UNL1        0.0404
     38 C          62.4780   87.8079    9.9630 C.ar    1  UNL1       -0.0008
     39 H          58.8188   90.5925    8.9112 H       1  UNL1        0.2922
     40 C          62.3090   90.2912   10.7078 C.3     1  UNL1        0.1666
     41 O          61.5145   90.9882   11.7722 O.3     1  UNL1       -0.3771
     42 H          60.7352   91.4054   11.3729 H       1  UNL1        0.2109
@<TRIPOS>BOND
     1    14    15    2
     2    15    16    2
     3    15     8    1
     4     8     9   ar
     5     9    10   ar
     6    10    11   ar
     7    11    12   ar
     8    12     7    1
     9     7     6    1
    10     6     5    1
    11     5     4    1
    12     4     3    1
    13     3     2    1
    14     2     1    1
    15     1    22    1
    16    22    23    1
    17    23    24    1
    18    24    25    1
    19    25    26    1
    20    26    28    1
    21    28    29    1
    22    29    30    1
    23    29    32    1
    24    32    33   ar
    25    33    34   ar
    26    34    35   ar
    27    35    36    1
    28    35    37   ar
    29    37    40    1
    30    40    41    1
    31    37    38   ar
    32    12    13   ar
    33    15    17    1
    34    17    18    1
    35    18    19    1
    36    19    20    1
    37    20    21    1
    38    13     8   ar
    39    21    17    1
    40    38    32   ar
    41    26    27    1
    42    30    31    1
    43    36    39    1
    44    41    42    1
