@<TRIPOS>MOLECULE
*****
 34 38 0 0 0
SMALL
GASTEIGER

@<TRIPOS>ATOM
      1 O          62.4802   89.5756   11.4292 O.2     1  UNL1       -0.2526
      2 C          63.6171   90.1055   12.2518 C.2     1  UNL1        0.3044
      3 N          64.3058   91.4239   12.0583 N.am    1  UNL1       -0.2833
      4 C          65.3792   91.5432   13.0991 C.3     1  UNL1        0.1144
      5 C          65.3540   90.2986   13.9359 C.3     1  UNL1        0.1212
      6 N          64.2648   89.4100   13.4122 N.am    1  UNL1       -0.2634
      7 H          64.0909   92.0933   11.3691 H       1  UNL1        0.1515
      8 C          66.5073   91.9401   14.0047 C.ar    1  UNL1       -0.0007
      9 C          66.2246   92.3500   15.4196 C.ar    1  UNL1       -0.0001
     10 C          67.3527   92.7469   16.3250 C.ar    1  UNL1        0.0294
     11 C          68.7635   92.7340   15.8155 C.ar    1  UNL1        0.1401
     12 F          69.8916   93.1309   16.7210 F       1  UNL1       -0.2042
     13 C          69.0462   92.3241   14.4006 C.ar    1  UNL1        0.0294
     14 C          67.9181   91.9272   13.4952 C.ar    1  UNL1       -0.0001
     15 C          65.6404   92.8708   12.4517 C.ar    1  UNL1       -0.0007
     16 C          65.4066   93.0467   10.9805 C.ar    1  UNL1       -0.0001
     17 C          65.6677   94.3744   10.3330 C.ar    1  UNL1        0.0294
     18 C          66.1626   95.5261   11.1567 C.ar    1  UNL1        0.1401
     19 F          66.4237   96.8537   10.5092 F       1  UNL1       -0.2042
     20 C          66.3964   95.3503   12.6279 C.ar    1  UNL1        0.0294
     21 C          66.1353   94.0226   13.2754 C.ar    1  UNL1       -0.0001
     22 C          63.8895   88.0625   13.9538 C.3     1  UNL1        0.0797
     23 C          63.4969   86.9599   13.0156 C.3     1  UNL1        0.0372
     24 C          63.1216   85.6124   13.5572 C.3     1  UNL1        0.0741
     25 N          63.1387   85.3674   15.0370 N.3     1  UNL1       -0.2689
     26 C          63.5312   86.4701   15.9752 C.3     1  UNL1        0.0741
     27 C          63.9066   87.8175   15.4335 C.3     1  UNL1        0.0372
     28 C          62.7633   84.0200   15.5786 C.3     1  UNL1        0.0991
     29 C          62.7389   82.8267   14.6700 C.ar    1  UNL1       -0.0061
     30 C          63.9581   82.4644   13.8749 C.ar    1  UNL1       -0.0029
     31 C          63.9337   81.2711   12.9664 C.ar    1  UNL1       -0.0003
     32 C          62.6900   80.4402   12.8530 C.ar    1  UNL1       -0.0000
     33 C          61.4708   80.8024   13.6480 C.ar    1  UNL1       -0.0003
     34 C          61.4952   81.9957   14.5566 C.ar    1  UNL1       -0.0029
@<TRIPOS>BOND
     1     1     2    2
     2     2     3   am
     3     3     4    1
     4     4     8    1
     5     8     9   ar
     6     9    10   ar
     7    10    11   ar
     8    11    12    1
     9    11    13   ar
    10    13    14   ar
    11     4    15    1
    12    15    16   ar
    13    16    17   ar
    14    17    18   ar
    15    18    19    1
    16    18    20   ar
    17    20    21   ar
    18     4     5    1
    19     5     6    1
    20     6    22    1
    21    22    23    1
    22    23    24    1
    23    24    25    1
    24    25    28    1
    25    28    29    1
    26    29    30   ar
    27    30    31   ar
    28    31    32   ar
    29    32    33   ar
    30    33    34   ar
    31    25    26    1
    32    26    27    1
    33     6     2   am
    34    27    22    1
    35    14     8   ar
    36    21    15   ar
    37    34    29   ar
    38     3     7    1
@<TRIPOS>MOLECULE
*****
 34 38 0 0 0
SMALL
GASTEIGER

@<TRIPOS>ATOM
      1 O          63.9969   88.7364   14.7775 O.2     1  UNL1       -0.2526
      2 C          64.5700   89.8147   13.9063 C.2     1  UNL1        0.3044
      3 N          65.6147   90.8123   14.3104 N.am    1  UNL1       -0.2833
      4 C          65.8894   91.6988   13.1319 C.3     1  UNL1        0.1144
      5 C          65.0145   91.2489   11.9996 C.3     1  UNL1        0.1212
      6 N          64.1991   90.0845   12.4782 N.am    1  UNL1       -0.2634
      7 H          66.0446   90.8744   15.1939 H       1  UNL1        0.1515
      8 C          66.3680   92.7241   12.1472 C.ar    1  UNL1       -0.0007
      9 C          66.0533   94.1749   12.3623 C.ar    1  UNL1       -0.0001
     10 C          66.5319   95.2001   11.3776 C.ar    1  UNL1        0.0294
     11 C          67.3251   94.7747   10.1777 C.ar    1  UNL1        0.1401
     12 F          67.8037   95.8000    9.1929 F       1  UNL1       -0.2042
     13 C          67.6398   93.3239    9.9626 C.ar    1  UNL1        0.0294
     14 C          67.1612   92.2987   10.9473 C.ar    1  UNL1       -0.0001
     15 C          66.8643   92.3630   14.0584 C.ar    1  UNL1       -0.0007
     16 C          68.3389   92.1852   13.8483 C.ar    1  UNL1       -0.0001
     17 C          69.3139   92.8495   14.7748 C.ar    1  UNL1        0.0294
     18 C          68.8143   93.6914   15.9113 C.ar    1  UNL1        0.1401
     19 F          69.7893   94.3555   16.8377 F       1  UNL1       -0.2042
     20 C          67.3398   93.8691   16.1214 C.ar    1  UNL1        0.0294
     21 C          66.3648   93.2049   15.1949 C.ar    1  UNL1       -0.0001
     22 C          63.1899   89.3235   11.6705 C.3     1  UNL1        0.0797
     23 C          62.9045   87.8857   11.9890 C.3     1  UNL1        0.0372
     24 C          61.8954   87.1246   11.1813 C.3     1  UNL1        0.0741
     25 N          61.1715   87.8013   10.0551 N.3     1  UNL1       -0.2689
     26 C          61.4569   89.2391    9.7367 C.3     1  UNL1        0.0741
     27 C          62.4661   90.0001   10.5444 C.3     1  UNL1        0.0372
     28 C          60.1624   87.0403    9.2475 C.3     1  UNL1        0.0991
     29 C          60.6181   86.0976    8.1733 C.ar    1  UNL1       -0.0061
     30 C          59.6360   85.5778    7.1657 C.ar    1  UNL1       -0.0029
     31 C          60.0917   84.6352    6.0916 C.ar    1  UNL1       -0.0003
     32 C          61.5294   84.2124    6.0251 C.ar    1  UNL1       -0.0000
     33 C          62.5114   84.7322    7.0328 C.ar    1  UNL1       -0.0003
     34 C          62.0557   85.6748    8.1069 C.ar    1  UNL1       -0.0029
@<TRIPOS>BOND
     1     1     2    2
     2     2     3   am
     3     3     4    1
     4     4     8    1
     5     8     9   ar
     6     9    10   ar
     7    10    11   ar
     8    11    12    1
     9    11    13   ar
    10    13    14   ar
    11     4    15    1
    12    15    16   ar
    13    16    17   ar
    14    17    18   ar
    15    18    19    1
    16    18    20   ar
    17    20    21   ar
    18     4     5    1
    19     5     6    1
    20     6    22    1
    21    22    23    1
    22    23    24    1
    23    24    25    1
    24    25    28    1
    25    28    29    1
    26    29    30   ar
    27    30    31   ar
    28    31    32   ar
    29    32    33   ar
    30    33    34   ar
    31    25    26    1
    32    26    27    1
    33     6     2   am
    34    27    22    1
    35    14     8   ar
    36    21    15   ar
    37    34    29   ar
    38     3     7    1
@<TRIPOS>MOLECULE
*****
 34 38 0 0 0
SMALL
GASTEIGER

@<TRIPOS>ATOM
      1 O          63.0953   88.6373   13.5698 O.2     1  UNL1       -0.2526
      2 C          63.8005   89.8144   12.9638 C.2     1  UNL1        0.3044
      3 N          64.9397   90.5720   13.5787 N.am    1  UNL1       -0.2833
      4 C          65.3336   91.6663   12.6314 C.3     1  UNL1        0.1144
      5 C          64.4378   91.5850   11.4311 C.3     1  UNL1        0.1212
      6 N          63.4903   90.4404   11.6365 N.am    1  UNL1       -0.2634
      7 H          65.3559   90.3840   14.4509 H       1  UNL1        0.1515
      8 C          65.9413   92.8284   11.9033 C.ar    1  UNL1       -0.0007
      9 C          66.6212   92.6141   10.5836 C.ar    1  UNL1       -0.0001
     10 C          67.2289   93.7762    9.8555 C.ar    1  UNL1        0.0294
     11 C          67.1567   95.1527   10.4471 C.ar    1  UNL1        0.1401
     12 F          67.7644   96.3148    9.7190 F       1  UNL1       -0.2042
     13 C          66.4767   95.3671   11.7668 C.ar    1  UNL1        0.0294
     14 C          65.8690   94.2049   12.4949 C.ar    1  UNL1       -0.0001
     15 C          66.3564   91.9906   13.6796 C.ar    1  UNL1       -0.0007
     16 C          65.9180   92.4449   15.0402 C.ar    1  UNL1       -0.0001
     17 C          66.9408   92.7692   16.0884 C.ar    1  UNL1        0.0294
     18 C          68.4022   92.6392   15.7759 C.ar    1  UNL1        0.1401
     19 F          69.4249   92.9635   16.8240 F       1  UNL1       -0.2042
     20 C          68.8406   92.1848   14.4153 C.ar    1  UNL1        0.0294
     21 C          67.8178   91.8605   13.3671 C.ar    1  UNL1       -0.0001
     22 C          62.4204   89.9993   10.6821 C.3     1  UNL1        0.0797
     23 C          62.5922   88.7335    9.8958 C.3     1  UNL1        0.0372
     24 C          61.5223   88.2924    8.9414 C.3     1  UNL1        0.0741
     25 N          60.2806   89.1171    8.7734 N.3     1  UNL1       -0.2689
     26 C          60.1088   90.3828    9.5598 C.3     1  UNL1        0.0741
     27 C          61.1787   90.8239   10.5141 C.3     1  UNL1        0.0372
     28 C          59.2108   88.6760    7.8191 C.3     1  UNL1        0.0991
     29 C          58.7556   89.5959    6.7252 C.ar    1  UNL1       -0.0061
     30 C          59.7643   90.3600    5.9198 C.ar    1  UNL1       -0.0029
     31 C          59.3091   91.2799    4.8259 C.ar    1  UNL1       -0.0003
     32 C          57.8454   91.4356    4.5374 C.ar    1  UNL1       -0.0000
     33 C          56.8368   90.6715    5.3428 C.ar    1  UNL1       -0.0003
     34 C          57.2919   89.7516    6.4367 C.ar    1  UNL1       -0.0029
@<TRIPOS>BOND
     1     1     2    2
     2     2     3   am
     3     3     4    1
     4     4     8    1
     5     8     9   ar
     6     9    10   ar
     7    10    11   ar
     8    11    12    1
     9    11    13   ar
    10    13    14   ar
    11     4    15    1
    12    15    16   ar
    13    16    17   ar
    14    17    18   ar
    15    18    19    1
    16    18    20   ar
    17    20    21   ar
    18     4     5    1
    19     5     6    1
    20     6    22    1
    21    22    23    1
    22    23    24    1
    23    24    25    1
    24    25    28    1
    25    28    29    1
    26    29    30   ar
    27    30    31   ar
    28    31    32   ar
    29    32    33   ar
    30    33    34   ar
    31    25    26    1
    32    26    27    1
    33     6     2   am
    34    27    22    1
    35    14     8   ar
    36    21    15   ar
    37    34    29   ar
    38     3     7    1
@<TRIPOS>MOLECULE
*****
 34 38 0 0 0
SMALL
GASTEIGER

@<TRIPOS>ATOM
      1 O          62.9783   92.7701    2.8056 O.2     1  UNL1       -0.2526
      2 C          61.7339   93.0642    2.0215 C.2     1  UNL1        0.3044
      3 N          61.6682   93.7958    0.7137 N.am    1  UNL1       -0.2833
      4 C          60.2303   93.8621    0.2915 C.3     1  UNL1        0.1144
      5 C          59.4075   93.1715    1.3383 C.3     1  UNL1        0.1212
      6 N          60.3368   92.6784    2.4076 N.am    1  UNL1       -0.2634
      7 H          62.4342   94.1672    0.2192 H       1  UNL1        0.1515
      8 C          58.9067   94.0824   -0.3790 C.ar    1  UNL1       -0.0007
      9 C          58.3741   95.4744   -0.5480 C.ar    1  UNL1       -0.0001
     10 C          57.0505   95.6947   -1.2185 C.ar    1  UNL1        0.0294
     11 C          56.2595   94.5229   -1.7199 C.ar    1  UNL1        0.1401
     12 F          54.9358   94.7432   -2.3903 F       1  UNL1       -0.2042
     13 C          56.7921   93.1309   -1.5508 C.ar    1  UNL1        0.0294
     14 C          58.1157   92.9107   -0.8804 C.ar    1  UNL1       -0.0001
     15 C          60.7765   94.5987   -0.8956 C.ar    1  UNL1       -0.0007
     16 C          61.2959   95.9969   -0.7367 C.ar    1  UNL1       -0.0001
     17 C          61.8420   96.7336   -1.9238 C.ar    1  UNL1        0.0294
     18 C          61.8687   96.0720   -3.2698 C.ar    1  UNL1        0.1401
     19 F          62.4148   96.8087   -4.4567 F       1  UNL1       -0.2042
     20 C          61.3493   94.6738   -3.4287 C.ar    1  UNL1        0.0294
     21 C          60.8032   93.9371   -2.2416 C.ar    1  UNL1       -0.0001
     22 C          59.9387   91.9307    3.6456 C.3     1  UNL1        0.0797
     23 C          58.5092   91.9394    4.0999 C.3     1  UNL1        0.0372
     24 C          58.1111   91.1918    5.3378 C.3     1  UNL1        0.0741
     25 N          59.1426   90.4354    6.1216 N.3     1  UNL1       -0.2689
     26 C          60.5721   90.4268    5.6672 C.3     1  UNL1        0.0741
     27 C          60.9701   91.1745    4.4293 C.3     1  UNL1        0.0372
     28 C          58.7445   89.6878    7.3595 C.3     1  UNL1        0.0991
     29 C          59.6189   88.5884    7.8855 C.ar    1  UNL1       -0.0061
     30 C          59.4843   87.1975    7.3405 C.ar    1  UNL1       -0.0029
     31 C          60.3587   86.0980    7.8666 C.ar    1  UNL1       -0.0003
     32 C          61.3676   86.3896    8.9376 C.ar    1  UNL1       -0.0000
     33 C          61.5022   87.7805    9.4826 C.ar    1  UNL1       -0.0003
     34 C          60.6278   88.8800    8.9565 C.ar    1  UNL1       -0.0029
@<TRIPOS>BOND
     1     1     2    2
     2     2     3   am
     3     3     4    1
     4     4     8    1
     5     8     9   ar
     6     9    10   ar
     7    10    11   ar
     8    11    12    1
     9    11    13   ar
    10    13    14   ar
    11     4    15    1
    12    15    16   ar
    13    16    17   ar
    14    17    18   ar
    15    18    19    1
    16    18    20   ar
    17    20    21   ar
    18     4     5    1
    19     5     6    1
    20     6    22    1
    21    22    23    1
    22    23    24    1
    23    24    25    1
    24    25    28    1
    25    28    29    1
    26    29    30   ar
    27    30    31   ar
    28    31    32   ar
    29    32    33   ar
    30    33    34   ar
    31    25    26    1
    32    26    27    1
    33     6     2   am
    34    27    22    1
    35    14     8   ar
    36    21    15   ar
    37    34    29   ar
    38     3     7    1
@<TRIPOS>MOLECULE
*****
 34 38 0 0 0
SMALL
GASTEIGER

@<TRIPOS>ATOM
      1 O          63.5694   92.6840    3.0763 O.2     1  UNL1       -0.2526
      2 C          62.4585   93.0519    2.1378 C.2     1  UNL1        0.3044
      3 N          62.6079   93.7934    0.8425 N.am    1  UNL1       -0.2833
      4 C          61.2450   93.9426    0.2341 C.3     1  UNL1        0.1144
      5 C          60.2534   93.2933    1.1533 C.3     1  UNL1        0.1212
      6 N          61.0034   92.7428    2.3299 N.am    1  UNL1       -0.2634
      7 H          63.4522   94.1240    0.4591 H       1  UNL1        0.1515
      8 C          60.0366   94.2405   -0.6032 C.ar    1  UNL1       -0.0007
      9 C          59.0023   95.2083   -0.1097 C.ar    1  UNL1       -0.0001
     10 C          57.7940   95.5063   -0.9470 C.ar    1  UNL1        0.0294
     11 C          57.6199   94.8364   -2.2778 C.ar    1  UNL1        0.1401
     12 F          56.4115   95.1344   -3.1151 F       1  UNL1       -0.2042
     13 C          58.6542   93.8687   -2.7713 C.ar    1  UNL1        0.0294
     14 C          59.8626   93.5707   -1.9341 C.ar    1  UNL1       -0.0001
     15 C          61.9840   94.6541   -0.8602 C.ar    1  UNL1       -0.0007
     16 C          62.8956   93.8870   -1.7715 C.ar    1  UNL1       -0.0001
     17 C          63.6346   94.5985   -2.8659 C.ar    1  UNL1        0.0294
     18 C          63.4621   96.0773   -3.0489 C.ar    1  UNL1        0.1401
     19 F          64.2011   96.7888   -4.1432 F       1  UNL1       -0.2042
     20 C          62.5505   96.8445   -2.1376 C.ar    1  UNL1        0.0294
     21 C          61.8114   96.1329   -1.0433 C.ar    1  UNL1       -0.0001
     22 C          60.4036   92.0116    3.4942 C.3     1  UNL1        0.0797
     23 C          61.2595   91.1137    4.3375 C.3     1  UNL1        0.0372
     24 C          60.6597   90.3825    5.5018 C.3     1  UNL1        0.0741
     25 N          59.2039   90.5491    5.8228 N.3     1  UNL1       -0.2689
     26 C          58.3480   91.4471    4.9795 C.3     1  UNL1        0.0741
     27 C          58.9479   92.1782    3.8152 C.3     1  UNL1        0.0372
     28 C          58.6042   89.8179    6.9870 C.3     1  UNL1        0.0991
     29 C          59.4046   88.7768    7.7119 C.ar    1  UNL1       -0.0061
     30 C          60.3875   89.1873    8.7680 C.ar    1  UNL1       -0.0029
     31 C          61.1879   88.1462    9.4928 C.ar    1  UNL1       -0.0003
     32 C          61.0055   86.6947    9.1615 C.ar    1  UNL1       -0.0000
     33 C          60.0226   86.2842    8.1054 C.ar    1  UNL1       -0.0003
     34 C          59.2222   87.3253    7.3806 C.ar    1  UNL1       -0.0029
@<TRIPOS>BOND
     1     1     2    2
     2     2     3   am
     3     3     4    1
     4     4     8    1
     5     8     9   ar
     6     9    10   ar
     7    10    11   ar
     8    11    12    1
     9    11    13   ar
    10    13    14   ar
    11     4    15    1
    12    15    16   ar
    13    16    17   ar
    14    17    18   ar
    15    18    19    1
    16    18    20   ar
    17    20    21   ar
    18     4     5    1
    19     5     6    1
    20     6    22    1
    21    22    23    1
    22    23    24    1
    23    24    25    1
    24    25    28    1
    25    28    29    1
    26    29    30   ar
    27    30    31   ar
    28    31    32   ar
    29    32    33   ar
    30    33    34   ar
    31    25    26    1
    32    26    27    1
    33     6     2   am
    34    27    22    1
    35    14     8   ar
    36    21    15   ar
    37    34    29   ar
    38     3     7    1
@<TRIPOS>MOLECULE
*****
 34 38 0 0 0
SMALL
GASTEIGER

@<TRIPOS>ATOM
      1 O          62.4356   90.9029    9.9185 O.2     1  UNL1       -0.2526
      2 C          62.5846   89.4685   10.3314 C.2     1  UNL1        0.3044
      3 N          62.1692   88.2721    9.5277 N.am    1  UNL1       -0.2833
      4 C          62.5031   87.0429   10.3200 C.3     1  UNL1        0.1144
      5 C          63.1247   87.4798   11.6133 C.3     1  UNL1        0.1212
      6 N          63.1751   88.9789   11.6203 N.am    1  UNL1       -0.2634
      7 H          61.7510   88.2903    8.6366 H       1  UNL1        0.1515
      8 C          62.7162   85.6620   10.8658 C.ar    1  UNL1       -0.0007
      9 C          62.1736   85.2971   12.2157 C.ar    1  UNL1       -0.0001
     10 C          62.3868   83.9163   12.7614 C.ar    1  UNL1        0.0294
     11 C          63.1426   82.9004   11.9572 C.ar    1  UNL1        0.1401
     12 F          63.3558   81.5195   12.5030 F       1  UNL1       -0.2042
     13 C          63.6853   83.2654   10.6073 C.ar    1  UNL1        0.0294
     14 C          63.4721   84.6462   10.0616 C.ar    1  UNL1       -0.0001
     15 C          61.9260   86.3174    9.1408 C.ar    1  UNL1       -0.0007
     16 C          62.8267   85.5535    8.2160 C.ar    1  UNL1       -0.0001
     17 C          62.2497   84.8279    7.0367 C.ar    1  UNL1        0.0294
     18 C          60.7719   84.8662    6.7823 C.ar    1  UNL1        0.1401
     19 F          60.1949   84.1407    5.6031 F       1  UNL1       -0.2042
     20 C          59.8712   85.6301    7.7071 C.ar    1  UNL1        0.0294
     21 C          60.4482   86.3557    8.8863 C.ar    1  UNL1       -0.0001
     22 C          63.7203   89.8376   12.7228 C.3     1  UNL1        0.0797
     23 C          63.5477   89.4206   14.1533 C.3     1  UNL1        0.0372
     24 C          64.0929   90.2793   15.2558 C.3     1  UNL1        0.0741
     25 N          64.8106   91.5550   14.9278 N.3     1  UNL1       -0.2689
     26 C          64.9831   91.9720   13.4972 C.3     1  UNL1        0.0741
     27 C          64.4379   91.1133   12.3948 C.3     1  UNL1        0.0372
     28 C          65.3557   92.4137   16.0302 C.3     1  UNL1        0.0991
     29 C          66.8172   92.7494   16.0666 C.ar    1  UNL1       -0.0061
     30 C          67.2920   94.0859   15.5785 C.ar    1  UNL1       -0.0029
     31 C          68.7535   94.4216   15.6149 C.ar    1  UNL1       -0.0003
     32 C          69.7401   93.4208   16.1394 C.ar    1  UNL1       -0.0000
     33 C          69.2653   92.0844   16.6275 C.ar    1  UNL1       -0.0003
     34 C          67.8038   91.7486   16.5911 C.ar    1  UNL1       -0.0029
@<TRIPOS>BOND
     1     1     2    2
     2     2     3   am
     3     3     4    1
     4     4     8    1
     5     8     9   ar
     6     9    10   ar
     7    10    11   ar
     8    11    12    1
     9    11    13   ar
    10    13    14   ar
    11     4    15    1
    12    15    16   ar
    13    16    17   ar
    14    17    18   ar
    15    18    19    1
    16    18    20   ar
    17    20    21   ar
    18     4     5    1
    19     5     6    1
    20     6    22    1
    21    22    23    1
    22    23    24    1
    23    24    25    1
    24    25    28    1
    25    28    29    1
    26    29    30   ar
    27    30    31   ar
    28    31    32   ar
    29    32    33   ar
    30    33    34   ar
    31    25    26    1
    32    26    27    1
    33     6     2   am
    34    27    22    1
    35    14     8   ar
    36    21    15   ar
    37    34    29   ar
    38     3     7    1
