@<TRIPOS>MOLECULE
*****
 31 35 0 0 0
SMALL
GASTEIGER

@<TRIPOS>ATOM
      1 C          63.5967   90.7845   15.1931 C.2     1  UNL1        0.2505
      2 O          63.4404   91.9307   16.1480 O.2     1  UNL1       -0.2699
      3 N          63.5191   89.3735   15.6960 N.am    1  UNL1       -0.2773
      4 C          63.2913   88.9557   17.1185 C.3     1  UNL1        0.0937
      5 C          63.2871   87.4565   17.1663 C.3     1  UNL1        0.0232
      6 C          63.5123   86.9476   15.7733 C.3     1  UNL1        0.0219
      7 C          63.6557   88.1324   14.8646 C.3     1  UNL1        0.0800
      8 C          61.9797   90.5485   10.2606 C.3     1  UNL1        0.0310
      9 C          63.0220   90.9314   11.2690 C.ar    1  UNL1       -0.0216
     10 C          64.2981   91.5791   10.8197 C.ar    1  UNL1       -0.0026
     11 C          65.3404   91.9620   11.8282 C.ar    1  UNL1        0.0207
     12 C          65.1066   91.6971   13.2859 C.ar    1  UNL1        0.1072
     13 C          63.8305   91.0494   13.7353 C.ar    1  UNL1        0.0726
     14 C          62.7882   90.6665   12.7268 C.ar    1  UNL1        0.0018
     15 N          66.1490   92.0800   14.2944 N.ar    1  UNL1       -0.1477
     16 N          66.3116   93.4314   14.9247 N.ar    1  UNL1       -0.1447
     17 C          67.4748   93.3653   15.8695 C.ar    1  UNL1        0.1446
     18 C          68.0311   91.9731   15.8231 C.ar    1  UNL1        0.1446
     19 N          67.2117   91.1787   14.8496 N.ar    1  UNL1       -0.1447
     20 C          63.8938   88.0845   13.3844 C.3     1  UNL1        0.0462
     21 C          63.2727   86.9964   12.5597 C.ar    1  UNL1       -0.0190
     22 C          62.4838   87.3435   11.3319 C.ar    1  UNL1       -0.0041
     23 C          61.8627   86.2554   10.5072 C.ar    1  UNL1        0.0013
     24 C          62.0304   84.8203   10.9102 C.ar    1  UNL1        0.0209
     25 C          62.8192   84.4733   12.1379 C.ar    1  UNL1        0.1026
     26 C          63.4404   85.5614   12.9626 C.ar    1  UNL1        0.0167
     27 N          62.9868   83.0381   12.5408 N.ar    1  UNL1       -0.1478
     28 N          62.3979   81.8507   11.8385 N.ar    1  UNL1       -0.1447
     29 C          62.8199   80.6172   12.5803 C.ar    1  UNL1        0.1446
     30 C          63.6696   81.0422   13.7411 C.ar    1  UNL1        0.1446
     31 N          63.7728   82.5385   13.7166 N.ar    1  UNL1       -0.1447
@<TRIPOS>BOND
     1     8     9    1
     2     9    10   ar
     3    10    11   ar
     4    11    12   ar
     5    12    15    1
     6    15    16   ar
     7    16    17   ar
     8    17    18   ar
     9    18    19   ar
    10    12    13   ar
    11    13     1    1
    12     1     2    2
    13     1     3   am
    14     3     4    1
    15     4     5    1
    16     5     6    1
    17     6     7    1
    18     7    20    1
    19    20    21    1
    20    21    22   ar
    21    22    23   ar
    22    23    24   ar
    23    24    25   ar
    24    25    27    1
    25    27    28   ar
    26    28    29   ar
    27    29    30   ar
    28    30    31   ar
    29    25    26   ar
    30    13    14   ar
    31    14     9   ar
    32    19    15   ar
    33     7     3    1
    34    26    21   ar
    35    31    27   ar
@<TRIPOS>MOLECULE
*****
 31 35 0 0 0
SMALL
GASTEIGER

@<TRIPOS>ATOM
      1 C          63.6364   90.8399   15.2150 C.2     1  UNL1        0.2505
      2 O          63.4933   91.9966   16.1592 O.2     1  UNL1       -0.2699
      3 N          63.5361   89.4346   15.7299 N.am    1  UNL1       -0.2773
      4 C          63.2965   89.0329   17.1551 C.3     1  UNL1        0.0937
      5 C          63.2700   87.5343   17.2160 C.3     1  UNL1        0.0232
      6 C          63.4932   87.0099   15.8285 C.3     1  UNL1        0.0219
      7 C          63.6576   88.1844   14.9100 C.3     1  UNL1        0.0800
      8 C          62.0414   90.5713   10.2770 C.3     1  UNL1        0.0310
      9 C          63.0824   90.9541   11.2869 C.ar    1  UNL1       -0.0216
     10 C          64.3667   91.5855   10.8377 C.ar    1  UNL1       -0.0026
     11 C          65.4076   91.9684   11.8476 C.ar    1  UNL1        0.0207
     12 C          65.1642   91.7199   13.3067 C.ar    1  UNL1        0.1072
     13 C          63.8799   91.0885   13.7559 C.ar    1  UNL1        0.0726
     14 C          62.8390   90.7056   12.7460 C.ar    1  UNL1        0.0018
     15 N          66.2051   92.1027   14.3166 N.ar    1  UNL1       -0.1477
     16 N          67.2426   91.1913   14.9024 N.ar    1  UNL1       -0.1447
     17 C          68.0700   91.9895   15.8659 C.ar    1  UNL1        0.1446
     18 C          67.5440   93.3942   15.8755 C.ar    1  UNL1        0.1446
     19 N          66.3914   93.4642   14.9180 N.ar    1  UNL1       -0.1447
     20 C          63.9009   88.1200   13.4313 C.3     1  UNL1        0.0462
     21 C          63.2972   87.0125   12.6195 C.ar    1  UNL1       -0.0190
     22 C          63.6276   85.5841   12.9368 C.ar    1  UNL1       -0.0041
     23 C          63.0239   84.4766   12.1250 C.ar    1  UNL1        0.0013
     24 C          62.0899   84.7974   10.9960 C.ar    1  UNL1        0.0209
     25 C          61.7596   86.2258   10.6787 C.ar    1  UNL1        0.1026
     26 C          62.3633   87.3333   11.4905 C.ar    1  UNL1        0.0167
     27 N          60.8256   86.5466    9.5496 N.ar    1  UNL1       -0.1478
     28 N          59.8662   87.6985    9.4993 N.ar    1  UNL1       -0.1447
     29 C          59.1347   87.6357    8.1913 C.ar    1  UNL1        0.1446
     30 C          59.6420   86.4449    7.4332 C.ar    1  UNL1        0.1446
     31 N          60.6871   85.7718    8.2727 N.ar    1  UNL1       -0.1447
@<TRIPOS>BOND
     1     8     9    1
     2     9    10   ar
     3    10    11   ar
     4    11    12   ar
     5    12    15    1
     6    15    16   ar
     7    16    17   ar
     8    17    18   ar
     9    18    19   ar
    10    12    13   ar
    11    13     1    1
    12     1     2    2
    13     1     3   am
    14     3     4    1
    15     4     5    1
    16     5     6    1
    17     6     7    1
    18     7    20    1
    19    20    21    1
    20    21    22   ar
    21    22    23   ar
    22    23    24   ar
    23    24    25   ar
    24    25    27    1
    25    27    28   ar
    26    28    29   ar
    27    29    30   ar
    28    30    31   ar
    29    25    26   ar
    30    13    14   ar
    31    14     9   ar
    32    19    15   ar
    33     7     3    1
    34    26    21   ar
    35    31    27   ar
@<TRIPOS>MOLECULE
*****
 31 35 0 0 0
SMALL
GASTEIGER

@<TRIPOS>ATOM
      1 C          64.1337   83.7328   12.0126 C.2     1  UNL1        0.2505
      2 O          65.0481   82.5446   11.9688 O.2     1  UNL1       -0.2699
      3 N          63.5200   84.2539   10.7470 N.am    1  UNL1       -0.2773
      4 C          63.7270   83.6937    9.3710 C.3     1  UNL1        0.0937
      5 C          62.9265   84.5203    8.4087 C.3     1  UNL1        0.0232
      6 C          62.2249   85.5915    9.1900 C.3     1  UNL1        0.0219
      7 C          62.5917   85.4269   10.6351 C.3     1  UNL1        0.0800
      8 C          64.4148   87.8936   15.1123 C.3     1  UNL1        0.0310
      9 C          63.9735   86.4803   14.8719 C.ar    1  UNL1       -0.0216
     10 C          63.2314   85.7341   15.9407 C.ar    1  UNL1       -0.0026
     11 C          62.7902   84.3208   15.7002 C.ar    1  UNL1        0.0207
     12 C          63.0909   83.6537   14.3909 C.ar    1  UNL1        0.1072
     13 C          63.8329   84.3999   13.3220 C.ar    1  UNL1        0.0726
     14 C          64.2742   85.8132   13.5625 C.ar    1  UNL1        0.0018
     15 N          62.6496   82.2404   14.1504 N.ar    1  UNL1       -0.1477
     16 N          63.5474   81.0447   14.0303 N.ar    1  UNL1       -0.1447
     17 C          62.6857   79.8400   13.7934 C.ar    1  UNL1        0.1446
     18 C          61.2554   80.2911   13.7672 C.ar    1  UNL1        0.1446
     19 N          61.2331   81.7746   13.9878 N.ar    1  UNL1       -0.1447
     20 C          62.1141   86.2846   11.7691 C.3     1  UNL1        0.0462
     21 C          61.8370   87.7412   11.5427 C.ar    1  UNL1       -0.0190
     22 C          60.4654   88.1888   11.1321 C.ar    1  UNL1       -0.0041
     23 C          60.1883   89.6454   10.9056 C.ar    1  UNL1        0.0013
     24 C          61.2827   90.6545   11.0898 C.ar    1  UNL1        0.0209
     25 C          62.6542   90.2070   11.5004 C.ar    1  UNL1        0.1026
     26 C          62.9313   88.7503   11.7268 C.ar    1  UNL1        0.0167
     27 N          63.7486   91.2162   11.6845 N.ar    1  UNL1       -0.1478
     28 N          64.3516   91.6339   12.9929 N.ar    1  UNL1       -0.1447
     29 C          65.4078   92.6607   12.7097 C.ar    1  UNL1        0.1446
     30 C          65.4575   92.8776   11.2262 C.ar    1  UNL1        0.1446
     31 N          64.4320   91.9848   10.5927 N.ar    1  UNL1       -0.1447
@<TRIPOS>BOND
     1     8     9    1
     2     9    10   ar
     3    10    11   ar
     4    11    12   ar
     5    12    15    1
     6    15    16   ar
     7    16    17   ar
     8    17    18   ar
     9    18    19   ar
    10    12    13   ar
    11    13     1    1
    12     1     2    2
    13     1     3   am
    14     3     4    1
    15     4     5    1
    16     5     6    1
    17     6     7    1
    18     7    20    1
    19    20    21    1
    20    21    22   ar
    21    22    23   ar
    22    23    24   ar
    23    24    25   ar
    24    25    27    1
    25    27    28   ar
    26    28    29   ar
    27    29    30   ar
    28    30    31   ar
    29    25    26   ar
    30    13    14   ar
    31    14     9   ar
    32    19    15   ar
    33     7     3    1
    34    26    21   ar
    35    31    27   ar
@<TRIPOS>MOLECULE
*****
 31 35 0 0 0
SMALL
GASTEIGER

@<TRIPOS>ATOM
      1 C          64.5751   92.0777   11.6352 C.2     1  UNL1        0.2505
      2 O          64.6014   93.1429   10.5794 O.2     1  UNL1       -0.2699
      3 N          63.7280   90.8545   11.4455 N.am    1  UNL1       -0.2773
      4 C          62.8589   90.5591   10.2592 C.3     1  UNL1        0.0937
      5 C          62.1950   89.2339   10.4894 C.3     1  UNL1        0.0232
      6 C          62.6537   88.7102   11.8181 C.3     1  UNL1        0.0219
      7 C          63.6012   89.7117   12.4090 C.3     1  UNL1        0.0800
      8 C          64.9380   92.0547   16.8186 C.3     1  UNL1        0.0310
      9 C          65.5774   92.2243   15.4724 C.ar    1  UNL1       -0.0216
     10 C          67.0377   92.5520   15.3715 C.ar    1  UNL1       -0.0026
     11 C          67.6771   92.7216   14.0253 C.ar    1  UNL1        0.0207
     12 C          66.8563   92.5635   12.7799 C.ar    1  UNL1        0.1072
     13 C          65.3960   92.2358   12.8807 C.ar    1  UNL1        0.0726
     14 C          64.7566   92.0662   14.2269 C.ar    1  UNL1        0.0018
     15 N          67.4957   92.7331   11.4336 N.ar    1  UNL1       -0.1477
     16 N          67.4186   93.9562   10.5687 N.ar    1  UNL1       -0.1447
     17 C          68.1997   93.6884    9.3164 C.ar    1  UNL1        0.1446
     18 C          68.7596   92.2998    9.4074 C.ar    1  UNL1        0.1446
     19 N          68.3245   91.7094   10.7159 N.ar    1  UNL1       -0.1447
     20 C          64.2993   89.5917   13.7312 C.3     1  UNL1        0.0462
     21 C          63.9764   88.4498   14.6488 C.ar    1  UNL1       -0.0190
     22 C          63.5609   88.7199   16.0646 C.ar    1  UNL1       -0.0041
     23 C          63.2381   87.5781   16.9822 C.ar    1  UNL1        0.0013
     24 C          63.3307   86.1663   16.4840 C.ar    1  UNL1        0.0209
     25 C          63.7461   85.8963   15.0682 C.ar    1  UNL1        0.1026
     26 C          64.0690   87.0381   14.1506 C.ar    1  UNL1        0.0167
     27 N          63.8387   84.4844   14.5701 N.ar    1  UNL1       -0.1478
     28 N          64.5228   84.0363   13.3126 N.ar    1  UNL1       -0.1447
     29 C          64.3704   82.5477   13.2073 C.ar    1  UNL1        0.1446
     30 C          63.5921   82.0759   14.3997 C.ar    1  UNL1        0.1446
     31 N          63.2635   83.2729   15.2419 N.ar    1  UNL1       -0.1447
@<TRIPOS>BOND
     1     8     9    1
     2     9    10   ar
     3    10    11   ar
     4    11    12   ar
     5    12    15    1
     6    15    16   ar
     7    16    17   ar
     8    17    18   ar
     9    18    19   ar
    10    12    13   ar
    11    13     1    1
    12     1     2    2
    13     1     3   am
    14     3     4    1
    15     4     5    1
    16     5     6    1
    17     6     7    1
    18     7    20    1
    19    20    21    1
    20    21    22   ar
    21    22    23   ar
    22    23    24   ar
    23    24    25   ar
    24    25    27    1
    25    27    28   ar
    26    28    29   ar
    27    29    30   ar
    28    30    31   ar
    29    25    26   ar
    30    13    14   ar
    31    14     9   ar
    32    19    15   ar
    33     7     3    1
    34    26    21   ar
    35    31    27   ar
@<TRIPOS>MOLECULE
*****
 31 35 0 0 0
SMALL
GASTEIGER

@<TRIPOS>ATOM
      1 C          62.8612   88.7937   11.0445 C.2     1  UNL1        0.2505
      2 O          63.0923   90.2207   10.6441 O.2     1  UNL1       -0.2699
      3 N          63.3795   88.2902   12.3589 N.am    1  UNL1       -0.2773
      4 C          64.1422   89.0922   13.3715 C.3     1  UNL1        0.0937
      5 C          64.4602   88.1940   14.5300 C.3     1  UNL1        0.0232
      6 C          63.8941   86.8369   14.2334 C.3     1  UNL1        0.0219
      7 C          63.2262   86.8964   12.8917 C.3     1  UNL1        0.0800
      8 C          62.8565   84.9582    7.5389 C.3     1  UNL1        0.0310
      9 C          62.1095   85.9525    8.3776 C.ar    1  UNL1       -0.0216
     10 C          60.6131   86.0233    8.3022 C.ar    1  UNL1       -0.0026
     11 C          59.8660   87.0175    9.1409 C.ar    1  UNL1        0.0207
     12 C          60.6154   87.9410   10.0550 C.ar    1  UNL1        0.1072
     13 C          62.1118   87.8702   10.1304 C.ar    1  UNL1        0.0726
     14 C          62.8588   86.8759    9.2917 C.ar    1  UNL1        0.0018
     15 N          59.8684   88.9353   10.8936 N.ar    1  UNL1       -0.1477
     16 N          59.6339   90.3770   10.5525 N.ar    1  UNL1       -0.1447
     17 C          58.8453   90.9952   11.6687 C.ar    1  UNL1        0.1446
     18 C          58.5923   89.9354   12.6997 C.ar    1  UNL1        0.1446
     19 N          59.2246   88.6624   12.2207 N.ar    1  UNL1       -0.1447
     20 C          62.5277   85.7614   12.2034 C.3     1  UNL1        0.0462
     21 C          62.6036   84.3768   12.7753 C.ar    1  UNL1       -0.0190
     22 C          62.6257   84.1796   14.2622 C.ar    1  UNL1       -0.0041
     23 C          62.7017   82.7950   14.8341 C.ar    1  UNL1        0.0013
     24 C          62.7556   81.6076   13.9191 C.ar    1  UNL1        0.0209
     25 C          62.7335   81.8048   12.4323 C.ar    1  UNL1        0.1026
     26 C          62.6575   83.1894   11.8605 C.ar    1  UNL1        0.0167
     27 N          62.7874   80.6172   11.5174 N.ar    1  UNL1       -0.1478
     28 N          63.0921   80.6487   10.0491 N.ar    1  UNL1       -0.1447
     29 C          63.0391   79.2408    9.5344 C.ar    1  UNL1        0.1446
     30 C          62.7016   78.3391   10.6847 C.ar    1  UNL1        0.1446
     31 N          62.5460   79.1899   11.9103 N.ar    1  UNL1       -0.1447
@<TRIPOS>BOND
     1     8     9    1
     2     9    10   ar
     3    10    11   ar
     4    11    12   ar
     5    12    15    1
     6    15    16   ar
     7    16    17   ar
     8    17    18   ar
     9    18    19   ar
    10    12    13   ar
    11    13     1    1
    12     1     2    2
    13     1     3   am
    14     3     4    1
    15     4     5    1
    16     5     6    1
    17     6     7    1
    18     7    20    1
    19    20    21    1
    20    21    22   ar
    21    22    23   ar
    22    23    24   ar
    23    24    25   ar
    24    25    27    1
    25    27    28   ar
    26    28    29   ar
    27    29    30   ar
    28    30    31   ar
    29    25    26   ar
    30    13    14   ar
    31    14     9   ar
    32    19    15   ar
    33     7     3    1
    34    26    21   ar
    35    31    27   ar
@<TRIPOS>MOLECULE
*****
 31 35 0 0 0
SMALL
GASTEIGER

@<TRIPOS>ATOM
      1 C          62.8068   89.6460   10.5015 C.2     1  UNL1        0.2505
      2 O          62.8131   90.8971    9.6741 O.2     1  UNL1       -0.2699
      3 N          63.4247   89.6476   11.8683 N.am    1  UNL1       -0.2773
      4 C          64.0824   90.8180   12.5371 C.3     1  UNL1        0.0937
      5 C          64.5576   90.3728   13.8884 C.3     1  UNL1        0.0232
      6 C          64.1936   88.9272   14.0547 C.3     1  UNL1        0.0219
      7 C          63.4935   88.4790   12.8062 C.3     1  UNL1        0.0800
      8 C          63.2194   85.1880    7.8641 C.3     1  UNL1        0.0310
      9 C          62.3889   86.1642    8.6433 C.ar    1  UNL1       -0.0216
     10 C          60.9343   85.8878    8.8831 C.ar    1  UNL1       -0.0026
     11 C          60.1038   86.8640    9.6624 C.ar    1  UNL1        0.0207
     12 C          60.7280   88.1167   10.2019 C.ar    1  UNL1        0.1072
     13 C          62.1826   88.3932    9.9620 C.ar    1  UNL1        0.0726
     14 C          63.0131   87.4170    9.1828 C.ar    1  UNL1        0.0018
     15 N          59.8975   89.0930   10.9811 N.ar    1  UNL1       -0.1477
     16 N          59.2198   88.8248   12.2921 N.ar    1  UNL1       -0.1447
     17 C          58.5024   90.0749   12.7075 C.ar    1  UNL1        0.1446
     18 C          58.7366   91.1158   11.6531 C.ar    1  UNL1        0.1446
     19 N          59.5989   90.5089   10.5862 N.ar    1  UNL1       -0.1447
     20 C          62.9563   87.1036   12.5420 C.3     1  UNL1        0.0462
     21 C          63.4200   85.9448   13.3739 C.ar    1  UNL1       -0.0190
     22 C          64.2848   86.1831   14.5761 C.ar    1  UNL1       -0.0041
     23 C          64.7485   85.0243   15.4080 C.ar    1  UNL1        0.0013
     24 C          64.3474   83.6272   15.0377 C.ar    1  UNL1        0.0209
     25 C          63.4826   83.3889   13.8355 C.ar    1  UNL1        0.1026
     26 C          63.0189   84.5477   13.0036 C.ar    1  UNL1        0.0167
     27 N          63.0815   81.9917   13.4653 N.ar    1  UNL1       -0.1478
     28 N          62.5413   80.9520   14.4019 N.ar    1  UNL1       -0.1447
     29 C          62.2761   79.7067   13.6090 C.ar    1  UNL1        0.1446
     30 C          62.6525   79.9766   12.1823 C.ar    1  UNL1        0.1446
     31 N          63.1502   81.3888   12.0934 N.ar    1  UNL1       -0.1447
@<TRIPOS>BOND
     1     8     9    1
     2     9    10   ar
     3    10    11   ar
     4    11    12   ar
     5    12    15    1
     6    15    16   ar
     7    16    17   ar
     8    17    18   ar
     9    18    19   ar
    10    12    13   ar
    11    13     1    1
    12     1     2    2
    13     1     3   am
    14     3     4    1
    15     4     5    1
    16     5     6    1
    17     6     7    1
    18     7    20    1
    19    20    21    1
    20    21    22   ar
    21    22    23   ar
    22    23    24   ar
    23    24    25   ar
    24    25    27    1
    25    27    28   ar
    26    28    29   ar
    27    29    30   ar
    28    30    31   ar
    29    25    26   ar
    30    13    14   ar
    31    14     9   ar
    32    19    15   ar
    33     7     3    1
    34    26    21   ar
    35    31    27   ar
@<TRIPOS>MOLECULE
*****
 31 35 0 0 0
SMALL
GASTEIGER

@<TRIPOS>ATOM
      1 C          63.6579   91.2250   11.3220 C.2     1  UNL1        0.2505
      2 O          63.5974   92.3728   10.3582 O.2     1  UNL1       -0.2699
      3 N          63.0616   89.9002   10.9489 N.am    1  UNL1       -0.2773
      4 C          62.3761   89.5749    9.6550 C.3     1  UNL1        0.0937
      5 C          61.9370   88.1417    9.7106 C.3     1  UNL1        0.0232
      6 C          62.3511   87.5812   11.0390 C.3     1  UNL1        0.0219
      7 C          63.0462   88.6680   11.8042 C.3     1  UNL1        0.0800
      8 C          63.6502   90.5128   16.4691 C.3     1  UNL1        0.0310
      9 C          64.3109   91.0460   15.2325 C.ar    1  UNL1       -0.0216
     10 C          65.6283   91.7561   15.3327 C.ar    1  UNL1       -0.0026
     11 C          66.2889   92.2893   14.0960 C.ar    1  UNL1        0.0207
     12 C          65.6321   92.1122   12.7592 C.ar    1  UNL1        0.1072
     13 C          64.3148   91.4021   12.6589 C.ar    1  UNL1        0.0726
     14 C          63.6541   90.8689   13.8956 C.ar    1  UNL1        0.0018
     15 N          66.2928   92.6454   11.5225 N.ar    1  UNL1       -0.1477
     16 N          67.3100   91.9267   10.6866 N.ar    1  UNL1       -0.1447
     17 C          67.6981   92.8280    9.5521 C.ar    1  UNL1        0.1446
     18 C          66.9207   94.1037    9.6868 C.ar    1  UNL1        0.1446
     19 N          66.0522   93.9908   10.9046 N.ar    1  UNL1       -0.1447
     20 C          63.6243   88.5443   13.1828 C.3     1  UNL1        0.0462
     21 C          63.7951   87.1906   13.8058 C.ar    1  UNL1       -0.0190
     22 C          64.1994   87.0732   15.2455 C.ar    1  UNL1       -0.0041
     23 C          64.3702   85.7194   15.8685 C.ar    1  UNL1        0.0013
     24 C          64.1369   84.4831   15.0517 C.ar    1  UNL1        0.0209
     25 C          63.7326   84.6006   13.6120 C.ar    1  UNL1        0.1026
     26 C          63.5618   85.9543   12.9891 C.ar    1  UNL1        0.0167
     27 N          63.4993   83.3642   12.7953 N.ar    1  UNL1       -0.1478
     28 N          62.7709   82.1333   13.2475 N.ar    1  UNL1       -0.1447
     29 C          62.7748   81.1500   12.1148 C.ar    1  UNL1        0.1446
     30 C          63.5055   81.7732   10.9625 C.ar    1  UNL1        0.1446
     31 N          63.9533   83.1416   11.3831 N.ar    1  UNL1       -0.1447
@<TRIPOS>BOND
     1     8     9    1
     2     9    10   ar
     3    10    11   ar
     4    11    12   ar
     5    12    15    1
     6    15    16   ar
     7    16    17   ar
     8    17    18   ar
     9    18    19   ar
    10    12    13   ar
    11    13     1    1
    12     1     2    2
    13     1     3   am
    14     3     4    1
    15     4     5    1
    16     5     6    1
    17     6     7    1
    18     7    20    1
    19    20    21    1
    20    21    22   ar
    21    22    23   ar
    22    23    24   ar
    23    24    25   ar
    24    25    27    1
    25    27    28   ar
    26    28    29   ar
    27    29    30   ar
    28    30    31   ar
    29    25    26   ar
    30    13    14   ar
    31    14     9   ar
    32    19    15   ar
    33     7     3    1
    34    26    21   ar
    35    31    27   ar
@<TRIPOS>MOLECULE
*****
 31 35 0 0 0
SMALL
GASTEIGER

@<TRIPOS>ATOM
      1 C          61.7793   86.4427   11.4398 C.2     1  UNL1        0.2505
      2 O          61.4359   85.0284   11.0767 O.2     1  UNL1       -0.2699
      3 N          62.8004   86.7171   12.5037 N.am    1  UNL1       -0.2773
      4 C          63.5569   85.6854   13.2867 C.3     1  UNL1        0.0937
      5 C          64.4684   86.4020   14.2383 C.3     1  UNL1        0.0232
      6 C          64.2753   87.8767   14.0434 C.3     1  UNL1        0.0219
      7 C          63.2444   88.0714   12.9713 C.3     1  UNL1        0.0800
      8 C          59.2274   90.9650   11.6322 C.3     1  UNL1        0.0310
      9 C          59.8255   89.8438   10.8352 C.ar    1  UNL1       -0.0216
     10 C          59.7457   89.8625    9.3375 C.ar    1  UNL1       -0.0026
     11 C          60.3437   88.7412    8.5405 C.ar    1  UNL1        0.0207
     12 C          61.0216   87.6013    9.2413 C.ar    1  UNL1        0.1072
     13 C          61.1014   87.5827   10.7390 C.ar    1  UNL1        0.0726
     14 C          60.5033   88.7039   11.5360 C.ar    1  UNL1        0.0018
     15 N          61.6197   86.4801    8.4443 N.ar    1  UNL1       -0.1477
     16 N          63.0145   85.9460    8.5828 N.ar    1  UNL1       -0.1447
     17 C          63.1848   84.8319    7.5930 C.ar    1  UNL1        0.1446
     18 C          61.8952   84.6775    6.8426 C.ar    1  UNL1        0.1446
     19 N          60.9279   85.6961    7.3688 N.ar    1  UNL1       -0.1447
     20 C          62.7452   89.3892   12.4572 C.3     1  UNL1        0.0462
     21 C          63.7111   90.5064   12.1947 C.ar    1  UNL1       -0.0190
     22 C          63.6773   91.2344   10.8835 C.ar    1  UNL1       -0.0041
     23 C          64.6432   92.3516   10.6210 C.ar    1  UNL1        0.0013
     24 C          65.6428   92.7408   11.6695 C.ar    1  UNL1        0.0209
     25 C          65.6764   92.0128   12.9806 C.ar    1  UNL1        0.1026
     26 C          64.7106   90.8956   13.2431 C.ar    1  UNL1        0.0167
     27 N          66.6761   92.4021   14.0291 N.ar    1  UNL1       -0.1478
     28 N          66.3597   92.8584   15.4225 N.ar    1  UNL1       -0.1447
     29 C          67.6555   93.1417   16.1229 C.ar    1  UNL1        0.1446
     30 C          68.7728   92.8605   15.1623 C.ar    1  UNL1        0.1446
     31 N          68.1674   92.4034   13.8682 N.ar    1  UNL1       -0.1447
@<TRIPOS>BOND
     1     8     9    1
     2     9    10   ar
     3    10    11   ar
     4    11    12   ar
     5    12    15    1
     6    15    16   ar
     7    16    17   ar
     8    17    18   ar
     9    18    19   ar
    10    12    13   ar
    11    13     1    1
    12     1     2    2
    13     1     3   am
    14     3     4    1
    15     4     5    1
    16     5     6    1
    17     6     7    1
    18     7    20    1
    19    20    21    1
    20    21    22   ar
    21    22    23   ar
    22    23    24   ar
    23    24    25   ar
    24    25    27    1
    25    27    28   ar
    26    28    29   ar
    27    29    30   ar
    28    30    31   ar
    29    25    26   ar
    30    13    14   ar
    31    14     9   ar
    32    19    15   ar
    33     7     3    1
    34    26    21   ar
    35    31    27   ar
