@<TRIPOS>MOLECULE
*****
 25 28 0 0 0
SMALL
GASTEIGER

@<TRIPOS>ATOM
      1 O          60.5555   89.3547   12.2726 O.2     1  UNL1       -0.2697
      2 C          61.9438   89.5738   11.7490 C.2     1  UNL1        0.2539
      3 N          62.3081   89.1064   10.3709 N.am    1  UNL1       -0.2805
      4 H          63.2194   89.2502   10.0271 H       1  UNL1        0.1550
      5 C          62.9681   90.2603   12.6032 C.ar    1  UNL1        0.1102
      6 C          63.1461   90.0812   14.0818 C.ar    1  UNL1        0.1281
      7 N          64.2821   90.9567   14.5212 N.ar    1  UNL1       -0.1619
      8 N          64.8062   91.6768   13.3142 N.ar    1  UNL1       -0.2105
      9 C          65.9179   92.6688   13.1414 C.ar    1  UNL1        0.1037
     10 C          66.2175   93.2304   11.7832 C.ar    1  UNL1        0.0414
     11 C          65.4054   92.8000   10.5978 C.ar    1  UNL1        0.1022
     12 N          64.2936   91.8080   10.7706 N.ar    1  UNL1       -0.2248
     13 C          63.9940   91.2464   12.1288 C.ar    1  UNL1        0.1697
     14 C          61.2839   88.4199    9.5166 C.2     1  UNL1        0.0774
     15 C          60.2320   89.0949    8.6872 C.2     1  UNL1        0.1342
     16 N          59.4298   88.0300    7.9998 N.2     1  UNL1       -0.1494
     17 N          59.9859   86.6970    8.4044 N.2     1  UNL1       -0.1660
     18 C          61.1318   86.9379    9.3418 C.3     1  UNL1        0.1843
     19 C          61.9772   85.8823    9.9906 C.ar    1  UNL1        0.0079
     20 C          62.8928   85.0368    9.1559 C.ar    1  UNL1       -0.0019
     21 C          63.7382   83.9812    9.8047 C.ar    1  UNL1        0.0006
     22 C          63.6679   83.7710   11.2883 C.ar    1  UNL1        0.0114
     23 C          62.7523   84.6164   12.1229 C.ar    1  UNL1        0.0574
     24 CL         62.6820   84.4062   13.6065 Cl      1  UNL1       -0.0823
     25 C          61.9069   85.6721   11.4741 C.ar    1  UNL1        0.0094
@<TRIPOS>BOND
     1     1     2    2
     2     2     3   am
     3     3    14    1
     4    14    15    2
     5    15    16    1
     6    16    17    2
     7    17    18    1
     8    18    19    1
     9    19    20   ar
    10    20    21   ar
    11    21    22   ar
    12    22    23   ar
    13    23    24    1
    14    23    25   ar
    15     2     5    1
    16     5     6   ar
    17     6     7   ar
    18     7     8   ar
    19     8     9   ar
    20     9    10   ar
    21    10    11   ar
    22    11    12   ar
    23    12    13   ar
    24    18    14    1
    25    25    19   ar
    26    13     5   ar
    27    13     8   ar
    28     3     4    1
@<TRIPOS>MOLECULE
*****
 25 28 0 0 0
SMALL
GASTEIGER

@<TRIPOS>ATOM
      1 O          63.1336   85.5273    8.3856 O.2     1  UNL1       -0.2697
      2 C          62.6106   85.2398    9.7617 C.2     1  UNL1        0.2539
      3 N          61.4183   85.9867   10.2820 N.am    1  UNL1       -0.2805
      4 H          61.0750   85.7981   11.1853 H       1  UNL1        0.1550
      5 C          63.2798   84.2055   10.6175 C.ar    1  UNL1        0.1102
      6 C          64.1868   83.1132   10.1335 C.ar    1  UNL1        0.1281
      7 N          64.6269   82.3145   11.3244 N.ar    1  UNL1       -0.1619
      8 N          63.9920   82.9132   12.5445 N.ar    1  UNL1       -0.2105
      9 C          64.0645   82.5452   13.9968 C.ar    1  UNL1        0.1037
     10 C          63.3043   83.3459   15.0122 C.ar    1  UNL1        0.0414
     11 C          62.4717   84.5146   14.5752 C.ar    1  UNL1        0.1022
     12 N          62.3993   84.8826   13.1229 N.ar    1  UNL1       -0.2248
     13 C          63.1594   84.0819   12.1075 C.ar    1  UNL1        0.1697
     14 C          60.7491   87.0210    9.4262 C.2     1  UNL1        0.0774
     15 C          59.7094   86.7591    8.3773 C.2     1  UNL1        0.1342
     16 N          59.3199   88.0751    7.7719 N.2     1  UNL1       -0.1494
     17 N          60.1190   89.1504    8.4467 N.2     1  UNL1       -0.1660
     18 C          61.0023   88.4989    9.4692 C.3     1  UNL1        0.1843
     19 C          61.9690   89.2019   10.3754 C.ar    1  UNL1        0.0079
     20 C          62.4456   90.5833   10.0369 C.ar    1  UNL1       -0.0019
     21 C          63.4123   91.2863   10.9431 C.ar    1  UNL1        0.0006
     22 C          63.9024   90.6077   12.1880 C.ar    1  UNL1        0.0114
     23 C          63.4258   89.2264   12.5265 C.ar    1  UNL1        0.0574
     24 CL         63.9159   88.5480   13.7713 Cl      1  UNL1       -0.0823
     25 C          62.4591   88.5235   11.6202 C.ar    1  UNL1        0.0094
@<TRIPOS>BOND
     1     1     2    2
     2     2     3   am
     3     3    14    1
     4    14    15    2
     5    15    16    1
     6    16    17    2
     7    17    18    1
     8    18    19    1
     9    19    20   ar
    10    20    21   ar
    11    21    22   ar
    12    22    23   ar
    13    23    24    1
    14    23    25   ar
    15     2     5    1
    16     5     6   ar
    17     6     7   ar
    18     7     8   ar
    19     8     9   ar
    20     9    10   ar
    21    10    11   ar
    22    11    12   ar
    23    12    13   ar
    24    18    14    1
    25    25    19   ar
    26    13     5   ar
    27    13     8   ar
    28     3     4    1
@<TRIPOS>MOLECULE
*****
 25 28 0 0 0
SMALL
GASTEIGER

@<TRIPOS>ATOM
      1 O          60.5869   89.2340   11.8878 O.2     1  UNL1       -0.2697
      2 C          61.8225   89.5879   11.1146 C.2     1  UNL1        0.2539
      3 N          61.9700   89.1402    9.6905 N.am    1  UNL1       -0.2805
      4 H          62.7810   89.3725    9.1830 H       1  UNL1        0.1550
      5 C          62.9107   90.3894   11.7653 C.ar    1  UNL1        0.1102
      6 C          63.8703   91.3052   11.0650 C.ar    1  UNL1        0.1281
      7 N          64.7830   91.8976   12.0975 N.ar    1  UNL1       -0.1619
      8 N          64.3875   91.3479   13.4360 N.ar    1  UNL1       -0.2105
      9 C          64.9315   91.5757   14.8151 C.ar    1  UNL1        0.1037
     10 C          64.3184   90.8713   15.9890 C.ar    1  UNL1        0.0414
     11 C          63.1613   89.9392   15.7837 C.ar    1  UNL1        0.1022
     12 N          62.6172   89.7114   14.4045 N.ar    1  UNL1       -0.2248
     13 C          63.2303   90.4157   13.2307 C.ar    1  UNL1        0.1697
     14 C          60.8818   88.3387    9.0398 C.2     1  UNL1        0.0774
     15 C          59.7157   88.8922    8.2757 C.2     1  UNL1        0.1342
     16 N          58.8819   87.7385    7.8026 N.2     1  UNL1       -0.1494
     17 N          59.5327   86.4720    8.2743 N.2     1  UNL1       -0.1660
     18 C          60.7687   86.8430    9.0389 C.3     1  UNL1        0.1843
     19 C          61.7239   85.8862    9.6886 C.ar    1  UNL1        0.0079
     20 C          62.7036   85.1194    8.8506 C.ar    1  UNL1       -0.0019
     21 C          63.6588   84.1626    9.5003 C.ar    1  UNL1        0.0006
     22 C          63.6343   83.9726   10.9882 C.ar    1  UNL1        0.0114
     23 C          62.6546   84.7394   11.8260 C.ar    1  UNL1        0.0574
     24 CL         62.6301   84.5493   13.3138 Cl      1  UNL1       -0.0823
     25 C          61.6994   85.6962   11.1763 C.ar    1  UNL1        0.0094
@<TRIPOS>BOND
     1     1     2    2
     2     2     3   am
     3     3    14    1
     4    14    15    2
     5    15    16    1
     6    16    17    2
     7    17    18    1
     8    18    19    1
     9    19    20   ar
    10    20    21   ar
    11    21    22   ar
    12    22    23   ar
    13    23    24    1
    14    23    25   ar
    15     2     5    1
    16     5     6   ar
    17     6     7   ar
    18     7     8   ar
    19     8     9   ar
    20     9    10   ar
    21    10    11   ar
    22    11    12   ar
    23    12    13   ar
    24    18    14    1
    25    25    19   ar
    26    13     5   ar
    27    13     8   ar
    28     3     4    1
@<TRIPOS>MOLECULE
*****
 25 28 0 0 0
SMALL
GASTEIGER

@<TRIPOS>ATOM
      1 O          64.1540   87.4674   14.5007 O.2     1  UNL1       -0.2697
      2 C          63.6069   86.3620   13.6471 C.2     1  UNL1        0.2539
      3 N          62.9534   86.6810   12.3351 N.am    1  UNL1       -0.2805
      4 H          62.5942   85.9555   11.7748 H       1  UNL1        0.1550
      5 C          63.7133   84.9377   14.1054 C.ar    1  UNL1        0.1102
      6 C          64.1135   84.4803   15.4767 C.ar    1  UNL1        0.1281
      7 N          64.0856   82.9806   15.4916 N.ar    1  UNL1       -0.1619
      8 N          63.6681   82.5112   14.1294 N.ar    1  UNL1       -0.2105
      9 C          63.4678   81.1386   13.5586 C.ar    1  UNL1        0.1037
     10 C          63.0373   80.9757   12.1310 C.ar    1  UNL1        0.0414
     11 C          62.8072   82.1852   11.2742 C.ar    1  UNL1        0.1022
     12 N          63.0075   83.5578   11.8451 N.ar    1  UNL1       -0.2248
     13 C          63.4380   83.7207   13.2727 C.ar    1  UNL1        0.1697
     14 C          62.8470   88.1053   11.8768 C.2     1  UNL1        0.0774
     15 C          63.3979   89.3044   12.5900 C.2     1  UNL1        0.1342
     16 N          63.0625   90.5207   11.7788 N.2     1  UNL1       -0.1494
     17 N          62.3042   90.0734   10.5643 N.2     1  UNL1       -0.1660
     18 C          62.1711   88.5805   10.6249 C.3     1  UNL1        0.1843
     19 C          61.4828   87.7149    9.6115 C.ar    1  UNL1        0.0079
     20 C          60.0223   87.9075    9.3287 C.ar    1  UNL1       -0.0019
     21 C          59.3341   87.0418    8.3153 C.ar    1  UNL1        0.0006
     22 C          60.1064   85.9835    7.5847 C.ar    1  UNL1        0.0114
     23 C          61.5668   85.7910    7.8676 C.ar    1  UNL1        0.0574
     24 CL         62.3390   84.7326    7.1370 Cl      1  UNL1       -0.0823
     25 C          62.2550   86.6566    8.8810 C.ar    1  UNL1        0.0094
@<TRIPOS>BOND
     1     1     2    2
     2     2     3   am
     3     3    14    1
     4    14    15    2
     5    15    16    1
     6    16    17    2
     7    17    18    1
     8    18    19    1
     9    19    20   ar
    10    20    21   ar
    11    21    22   ar
    12    22    23   ar
    13    23    24    1
    14    23    25   ar
    15     2     5    1
    16     5     6   ar
    17     6     7   ar
    18     7     8   ar
    19     8     9   ar
    20     9    10   ar
    21    10    11   ar
    22    11    12   ar
    23    12    13   ar
    24    18    14    1
    25    25    19   ar
    26    13     5   ar
    27    13     8   ar
    28     3     4    1
@<TRIPOS>MOLECULE
*****
 25 28 0 0 0
SMALL
GASTEIGER

@<TRIPOS>ATOM
      1 O          63.4973   84.1157   10.4965 O.2     1  UNL1       -0.2697
      2 C          62.4604   85.0525   11.0413 C.2     1  UNL1        0.2539
      3 N          62.1347   85.0413   12.5056 N.am    1  UNL1       -0.2805
      4 H          61.4541   85.6561   12.8632 H       1  UNL1        0.1550
      5 C          61.7489   86.0006   10.1221 C.ar    1  UNL1        0.1102
      6 C          61.3150   85.7072    8.7165 C.ar    1  UNL1        0.1281
      7 N          60.6444   86.9338    8.1728 N.ar    1  UNL1       -0.1619
      8 N          60.6640   87.9854    9.2423 N.ar    1  UNL1       -0.2105
      9 C          60.1483   89.3936    9.2748 C.ar    1  UNL1        0.1037
     10 C          60.3154   90.2250   10.5121 C.ar    1  UNL1        0.0414
     11 C          60.9980   89.6483   11.7168 C.ar    1  UNL1        0.1022
     12 N          61.5136   88.2401   11.6843 N.ar    1  UNL1       -0.2248
     13 C          61.3466   87.4087   10.4470 C.ar    1  UNL1        0.1697
     14 C          62.8462   84.0932   13.4248 C.2     1  UNL1        0.0774
     15 C          63.0802   82.6326   13.1759 C.2     1  UNL1        0.1342
     16 N          63.8271   82.0760   14.3516 N.2     1  UNL1       -0.1494
     17 N          64.0547   83.1925   15.3272 N.2     1  UNL1       -0.1660
     18 C          63.4484   84.4392   14.7543 C.3     1  UNL1        0.1843
     19 C          63.4449   85.7941   15.3980 C.ar    1  UNL1        0.0079
     20 C          62.8563   85.9731   16.7660 C.ar    1  UNL1       -0.0019
     21 C          62.8528   87.3279   17.4097 C.ar    1  UNL1        0.0006
     22 C          63.4380   88.5039   16.6852 C.ar    1  UNL1        0.0114
     23 C          64.0265   88.3249   15.3172 C.ar    1  UNL1        0.0574
     24 CL         64.6117   89.5009   14.5928 Cl      1  UNL1       -0.0823
     25 C          64.0300   86.9700   14.6736 C.ar    1  UNL1        0.0094
@<TRIPOS>BOND
     1     1     2    2
     2     2     3   am
     3     3    14    1
     4    14    15    2
     5    15    16    1
     6    16    17    2
     7    17    18    1
     8    18    19    1
     9    19    20   ar
    10    20    21   ar
    11    21    22   ar
    12    22    23   ar
    13    23    24    1
    14    23    25   ar
    15     2     5    1
    16     5     6   ar
    17     6     7   ar
    18     7     8   ar
    19     8     9   ar
    20     9    10   ar
    21    10    11   ar
    22    11    12   ar
    23    12    13   ar
    24    18    14    1
    25    25    19   ar
    26    13     5   ar
    27    13     8   ar
    28     3     4    1
@<TRIPOS>MOLECULE
*****
 25 28 0 0 0
SMALL
GASTEIGER

@<TRIPOS>ATOM
      1 O          62.8029   89.9122   13.9666 O.2     1  UNL1       -0.2697
      2 C          63.1456   90.2123   12.5376 C.2     1  UNL1        0.2539
      3 N          64.2357   91.1919   12.2175 N.am    1  UNL1       -0.2805
      4 H          64.4606   91.3889   11.2795 H       1  UNL1        0.1550
      5 C          62.3985   89.5329   11.4285 C.ar    1  UNL1        0.1102
      6 C          61.6651   90.2153   10.3120 C.ar    1  UNL1        0.1281
      7 N          61.0669   89.1559    9.4347 N.ar    1  UNL1       -0.1619
      8 N          61.4305   87.8187   10.0089 N.ar    1  UNL1       -0.2105
      9 C          61.1185   86.4191    9.5689 C.ar    1  UNL1        0.1037
     10 C          61.6296   85.2524   10.3611 C.ar    1  UNL1        0.0414
     11 C          62.4525   85.4854   11.5934 C.ar    1  UNL1        0.1022
     12 N          62.7645   86.8850   12.0334 N.ar    1  UNL1       -0.2248
     13 C          62.2535   88.0517   11.2411 C.ar    1  UNL1        0.1697
     14 C          64.9828   91.8713   13.3266 C.2     1  UNL1        0.0774
     15 C          64.8019   91.6207   14.7944 C.2     1  UNL1        0.1342
     16 N          65.7494   92.5152   15.5375 N.2     1  UNL1       -0.1494
     17 N          66.5159   93.3186   14.5290 N.2     1  UNL1       -0.1660
     18 C          66.0421   92.9207   13.1626 C.3     1  UNL1        0.1843
     19 C          66.5401   93.4747   11.8607 C.ar    1  UNL1        0.0079
     20 C          66.2533   94.9006   11.4936 C.ar    1  UNL1       -0.0019
     21 C          66.7513   95.4546   10.1917 C.ar    1  UNL1        0.0006
     22 C          67.5363   94.5828    9.2568 C.ar    1  UNL1        0.0114
     23 C          67.8231   93.1570    9.6239 C.ar    1  UNL1        0.0574
     24 CL         68.6080   92.2853    8.6890 Cl      1  UNL1       -0.0823
     25 C          67.3250   92.6030   10.9258 C.ar    1  UNL1        0.0094
@<TRIPOS>BOND
     1     1     2    2
     2     2     3   am
     3     3    14    1
     4    14    15    2
     5    15    16    1
     6    16    17    2
     7    17    18    1
     8    18    19    1
     9    19    20   ar
    10    20    21   ar
    11    21    22   ar
    12    22    23   ar
    13    23    24    1
    14    23    25   ar
    15     2     5    1
    16     5     6   ar
    17     6     7   ar
    18     7     8   ar
    19     8     9   ar
    20     9    10   ar
    21    10    11   ar
    22    11    12   ar
    23    12    13   ar
    24    18    14    1
    25    25    19   ar
    26    13     5   ar
    27    13     8   ar
    28     3     4    1
@<TRIPOS>MOLECULE
*****
 25 28 0 0 0
SMALL
GASTEIGER

@<TRIPOS>ATOM
      1 O          63.5105   87.1614   15.9862 O.2     1  UNL1       -0.2697
      2 C          63.7085   86.5301   14.6401 C.2     1  UNL1        0.2539
      3 N          63.8872   87.3929   13.4261 N.am    1  UNL1       -0.2805
      4 H          64.0171   86.9786   12.5425 H       1  UNL1        0.1550
      5 C          63.7280   85.0361   14.5078 C.ar    1  UNL1        0.1102
      6 C          63.8541   84.0529   15.6336 C.ar    1  UNL1        0.1281
      7 N          63.8288   82.6721   15.0480 N.ar    1  UNL1       -0.1619
      8 N          63.6870   82.8020   13.5604 N.ar    1  UNL1       -0.2105
      9 C          63.6066   81.7786   12.4667 C.ar    1  UNL1        0.1037
     10 C          63.4638   82.2163   11.0391 C.ar    1  UNL1        0.0414
     11 C          63.4015   83.6773   10.7053 C.ar    1  UNL1        0.1022
     12 N          63.4820   84.7007   11.7990 N.ar    1  UNL1       -0.2248
     13 C          63.6247   84.2630   13.2265 C.ar    1  UNL1        0.1697
     14 C          63.8677   88.8870   13.5583 C.2     1  UNL1        0.0774
     15 C          64.6284   89.6926   14.5695 C.2     1  UNL1        0.1342
     16 N          64.3149   91.1412   14.3387 N.2     1  UNL1       -0.1494
     17 N          63.3606   91.2309   13.1850 N.2     1  UNL1       -0.1660
     18 C          63.0842   89.8377   12.7026 C.3     1  UNL1        0.1843
     19 C          62.1825   89.4613   11.5645 C.ar    1  UNL1        0.0079
     20 C          61.0462   90.3612   11.1786 C.ar    1  UNL1       -0.0019
     21 C          60.1446   89.9848   10.0405 C.ar    1  UNL1        0.0006
     22 C          60.3794   88.7084    9.2882 C.ar    1  UNL1        0.0114
     23 C          61.5157   87.8086    9.6741 C.ar    1  UNL1        0.0574
     24 CL         61.7504   86.5322    8.9218 Cl      1  UNL1       -0.0823
     25 C          62.4173   88.1850   10.8123 C.ar    1  UNL1        0.0094
@<TRIPOS>BOND
     1     1     2    2
     2     2     3   am
     3     3    14    1
     4    14    15    2
     5    15    16    1
     6    16    17    2
     7    17    18    1
     8    18    19    1
     9    19    20   ar
    10    20    21   ar
    11    21    22   ar
    12    22    23   ar
    13    23    24    1
    14    23    25   ar
    15     2     5    1
    16     5     6   ar
    17     6     7   ar
    18     7     8   ar
    19     8     9   ar
    20     9    10   ar
    21    10    11   ar
    22    11    12   ar
    23    12    13   ar
    24    18    14    1
    25    25    19   ar
    26    13     5   ar
    27    13     8   ar
    28     3     4    1
@<TRIPOS>MOLECULE
*****
 25 28 0 0 0
SMALL
GASTEIGER

@<TRIPOS>ATOM
      1 O          62.7393   89.3857   15.5191 O.2     1  UNL1       -0.2697
      2 C          63.7044   89.1568   14.3939 C.2     1  UNL1        0.2539
      3 N          64.2002   87.7716   14.1012 N.am    1  UNL1       -0.2805
      4 H          64.8336   87.6213   13.3627 H       1  UNL1        0.1550
      5 C          64.1738   90.3129   13.5615 C.ar    1  UNL1        0.1102
      6 C          63.7803   90.5943   12.1416 C.ar    1  UNL1        0.1281
      7 N          64.4825   91.8459   11.7054 N.ar    1  UNL1       -0.1619
      8 N          65.3100   92.3382   12.8556 N.ar    1  UNL1       -0.2105
      9 C          66.2125   93.5267   13.0066 C.ar    1  UNL1        0.1037
     10 C          66.9243   93.7677   14.3048 C.ar    1  UNL1        0.0414
     11 C          66.7335   92.8202   15.4519 C.ar    1  UNL1        0.1022
     12 N          65.8310   91.6317   15.3009 N.ar    1  UNL1       -0.2248
     13 C          65.1192   91.3907   14.0028 C.ar    1  UNL1        0.1697
     14 C          63.7307   86.6155   14.9337 C.2     1  UNL1        0.0774
     15 C          63.5260   86.6246   16.4196 C.2     1  UNL1        0.1342
     16 N          63.0524   85.2620   16.8306 N.2     1  UNL1       -0.1494
     17 N          62.9643   84.4107   15.5987 N.2     1  UNL1       -0.1660
     18 C          63.3836   85.2472   14.4263 C.3     1  UNL1        0.1843
     19 C          63.4449   84.7950   12.9974 C.ar    1  UNL1        0.0079
     20 C          64.3152   83.6347   12.6147 C.ar    1  UNL1       -0.0019
     21 C          64.3765   83.1825   11.1858 C.ar    1  UNL1        0.0006
     22 C          63.5675   83.8905   10.1397 C.ar    1  UNL1        0.0114
     23 C          62.6972   85.0506   10.5225 C.ar    1  UNL1        0.0574
     24 CL         61.8882   85.7586    9.4763 Cl      1  UNL1       -0.0823
     25 C          62.6359   85.5029   11.9513 C.ar    1  UNL1        0.0094
@<TRIPOS>BOND
     1     1     2    2
     2     2     3   am
     3     3    14    1
     4    14    15    2
     5    15    16    1
     6    16    17    2
     7    17    18    1
     8    18    19    1
     9    19    20   ar
    10    20    21   ar
    11    21    22   ar
    12    22    23   ar
    13    23    24    1
    14    23    25   ar
    15     2     5    1
    16     5     6   ar
    17     6     7   ar
    18     7     8   ar
    19     8     9   ar
    20     9    10   ar
    21    10    11   ar
    22    11    12   ar
    23    12    13   ar
    24    18    14    1
    25    25    19   ar
    26    13     5   ar
    27    13     8   ar
    28     3     4    1
@<TRIPOS>MOLECULE
*****
 25 28 0 0 0
SMALL
GASTEIGER

@<TRIPOS>ATOM
      1 O          63.1252   90.4332   16.2353 O.2     1  UNL1       -0.2697
      2 C          63.5424   89.6710   15.0127 C.2     1  UNL1        0.2539
      3 N          63.6098   88.1729   15.0497 N.am    1  UNL1       -0.2805
      4 H          63.8836   87.6725   14.2472 H       1  UNL1        0.1550
      5 C          63.8920   90.4067   13.7531 C.ar    1  UNL1        0.1102
      6 C          63.3789   90.0948   12.3786 C.ar    1  UNL1        0.1281
      7 N          63.9860   91.0787   11.4229 N.ar    1  UNL1       -0.1619
      8 N          64.8742   91.9988   12.2069 N.ar    1  UNL1       -0.2105
      9 C          65.7284   93.1610   11.7954 C.ar    1  UNL1        0.1037
     10 C          66.5246   93.9079   12.8241 C.ar    1  UNL1        0.0414
     11 C          66.4665   93.4926   14.2642 C.ar    1  UNL1        0.1022
     12 N          65.6123   92.3303   14.6757 N.ar    1  UNL1       -0.2248
     13 C          64.8162   91.5834   13.6470 C.ar    1  UNL1        0.1697
     14 C          63.2602   87.4372   16.3093 C.2     1  UNL1        0.0774
     15 C          62.9700   88.0602   17.6425 C.2     1  UNL1        0.1342
     16 N          62.6698   86.9574   18.6140 N.2     1  UNL1       -0.1494
     17 N          62.7745   85.6528   17.8811 N.2     1  UNL1       -0.1660
     18 C          63.1394   85.9494   16.4567 C.3     1  UNL1        0.1843
     19 C          63.3470   84.9360   15.3704 C.ar    1  UNL1        0.0079
     20 C          64.4930   85.0856   14.4142 C.ar    1  UNL1       -0.0019
     21 C          64.7006   84.0723   13.3279 C.ar    1  UNL1        0.0006
     22 C          63.7621   82.9092   13.1979 C.ar    1  UNL1        0.0114
     23 C          62.6162   82.7597   14.1541 C.ar    1  UNL1        0.0574
     24 CL         61.6778   81.5967   14.0240 Cl      1  UNL1       -0.0823
     25 C          62.4086   83.7731   15.2403 C.ar    1  UNL1        0.0094
@<TRIPOS>BOND
     1     1     2    2
     2     2     3   am
     3     3    14    1
     4    14    15    2
     5    15    16    1
     6    16    17    2
     7    17    18    1
     8    18    19    1
     9    19    20   ar
    10    20    21   ar
    11    21    22   ar
    12    22    23   ar
    13    23    24    1
    14    23    25   ar
    15     2     5    1
    16     5     6   ar
    17     6     7   ar
    18     7     8   ar
    19     8     9   ar
    20     9    10   ar
    21    10    11   ar
    22    11    12   ar
    23    12    13   ar
    24    18    14    1
    25    25    19   ar
    26    13     5   ar
    27    13     8   ar
    28     3     4    1
