@<TRIPOS>MOLECULE
*****
 33 37 0 0 0
SMALL
GASTEIGER

@<TRIPOS>ATOM
      1 N          61.3087   89.6498   11.2909 N.pl3   1  UNL1       -0.2980
      2 H          60.4810   89.9557   11.7275 H       1  UNL1        0.1536
      3 C          62.5507   90.4875   11.3672 C.ar    1  UNL1        0.1384
      4 N          62.9757   91.3079   10.1855 N.ar    1  UNL1       -0.2088
      5 C          64.2177   92.1455   10.2618 C.ar    1  UNL1        0.2014
      6 N          65.0346   92.1628   11.5197 N.ar    1  UNL1       -0.2047
      7 C          64.6096   91.3424   12.7014 C.ar    1  UNL1        0.1697
      8 C          63.3676   90.5048   12.6251 C.ar    1  UNL1        0.0884
      9 C          63.1989   89.8048   13.9411 C.ar    1  UNL1        0.1264
     10 N          64.3367   90.2100   14.8307 N.ar    1  UNL1       -0.1620
     11 N          65.2085   91.1602   14.0645 N.ar    1  UNL1       -0.2120
     12 C          66.4596   91.8136   14.5722 C.ar    1  UNL1        0.0844
     13 C          67.7375   91.6915   13.7964 C.ar    1  UNL1        0.0192
     14 C          68.9886   92.3448   14.3042 C.ar    1  UNL1        0.0015
     15 C          68.9618   93.1204   15.5878 C.ar    1  UNL1        0.0001
     16 C          67.6839   93.2426   16.3637 C.ar    1  UNL1        0.0015
     17 C          66.4328   92.5892   15.8559 C.ar    1  UNL1        0.0192
     18 C          60.1158   89.4685    8.5442 C.3     1  UNL1        0.0323
     19 C          60.7313   88.2553    9.1761 C.ar    1  UNL1       -0.0084
     20 C          60.7505   86.9515    8.4347 C.ar    1  UNL1       -0.0029
     21 C          61.3661   85.7383    9.0667 C.ar    1  UNL1        0.0043
     22 C          61.9625   85.8290   10.4400 C.ar    1  UNL1        0.0549
     23 C          61.9434   87.1328   11.1814 C.ar    1  UNL1        0.0188
     24 C          61.3278   88.3460   10.5495 C.ar    1  UNL1        0.0455
     25 C          62.5781   84.6158   11.0720 C.2     1  UNL1        0.2507
     26 O          63.5919   83.8092   10.3161 O.2     1  UNL1       -0.2698
     27 N          62.1798   84.2094   12.4598 N.am    1  UNL1       -0.2632
     28 H          61.5144   84.7388   12.9560 H       1  UNL1        0.1567
     29 C          62.7954   82.9962   13.0917 C.ar    1  UNL1        0.1767
     30 C          62.4657   81.5695   12.7667 C.ar    1  UNL1        0.0812
     31 C          63.3153   80.6883   13.6337 C.ar    1  UNL1        0.2152
     32 O          64.1701   81.5705   14.4946 O.2     1  UNL1       -0.3489
     33 N          63.8488   82.9969   14.1596 N.ar    1  UNL1       -0.0616
@<TRIPOS>BOND
     1    18    19    1
     2    19    20   ar
     3    20    21   ar
     4    21    22   ar
     5    22    25    1
     6    25    26    2
     7    25    27   am
     8    27    29    1
     9    29    30   ar
    10    30    31   ar
    11    31    32   ar
    12    32    33   ar
    13    22    23   ar
    14    23    24   ar
    15    24     1    1
    16     1     3    1
    17     3     4   ar
    18     4     5   ar
    19     5     6   ar
    20     6     7   ar
    21     7     8   ar
    22     8     9   ar
    23     9    10   ar
    24    10    11   ar
    25    11    12    1
    26    12    13   ar
    27    13    14   ar
    28    14    15   ar
    29    15    16   ar
    30    16    17   ar
    31    24    19   ar
    32     8     3   ar
    33    17    12   ar
    34    33    29   ar
    35    11     7   ar
    36    27    28    1
    37     1     2    1
@<TRIPOS>MOLECULE
*****
 33 37 0 0 0
SMALL
GASTEIGER

@<TRIPOS>ATOM
      1 N          61.5345   90.2078   10.3088 N.pl3   1  UNL1       -0.2980
      2 H          61.1985   91.0221    9.8690 H       1  UNL1        0.1536
      3 C          62.3110   90.3123   11.5880 C.ar    1  UNL1        0.1384
      4 N          61.7910   89.6631   12.8362 N.ar    1  UNL1       -0.2088
      5 C          62.5675   89.7675   14.1152 C.ar    1  UNL1        0.2014
      6 N          63.8640   90.5213   14.1461 N.ar    1  UNL1       -0.2047
      7 C          64.3840   91.1705   12.8979 C.ar    1  UNL1        0.1697
      8 C          63.6075   91.0660   11.6189 C.ar    1  UNL1        0.0884
      9 C          64.3650   91.8041   10.5551 C.ar    1  UNL1        0.1264
     10 N          65.6096   92.3647   11.1768 N.ar    1  UNL1       -0.1620
     11 N          65.6214   91.9731   12.6247 N.ar    1  UNL1       -0.2120
     12 C          66.6840   92.3228   13.6241 C.ar    1  UNL1        0.0844
     13 C          68.1089   91.9271   13.3733 C.ar    1  UNL1        0.0192
     14 C          69.1714   92.2767   14.3726 C.ar    1  UNL1        0.0015
     15 C          68.8091   93.0221   15.6228 C.ar    1  UNL1        0.0001
     16 C          67.3842   93.4179   15.8736 C.ar    1  UNL1        0.0015
     17 C          66.3216   93.0682   14.8743 C.ar    1  UNL1        0.0192
     18 C          59.5672   89.9404    8.0597 C.3     1  UNL1        0.0323
     19 C          60.2862   88.7291    8.5752 C.ar    1  UNL1       -0.0084
     20 C          60.0216   87.3841    7.9662 C.ar    1  UNL1       -0.0029
     21 C          60.7407   86.1728    8.4817 C.ar    1  UNL1        0.0043
     22 C          61.7243   86.3065    9.6062 C.ar    1  UNL1        0.0549
     23 C          61.9889   87.6515   10.2153 C.ar    1  UNL1        0.0188
     24 C          61.2699   88.8628    9.6998 C.ar    1  UNL1        0.0455
     25 C          62.4434   85.0952   10.1218 C.2     1  UNL1        0.2507
     26 O          63.3798   84.3408    9.2252 O.2     1  UNL1       -0.2698
     27 N          62.2260   84.6384   11.5339 N.am    1  UNL1       -0.2632
     28 H          61.6114   85.1336   12.1223 H       1  UNL1        0.1567
     29 C          62.9451   83.4271   12.0493 C.ar    1  UNL1        0.1767
     30 C          62.3400   82.0741   12.2798 C.ar    1  UNL1        0.0812
     31 C          63.4164   81.1670   12.7977 C.ar    1  UNL1        0.2152
     32 O          64.6869   81.9594   12.8874 O.2     1  UNL1       -0.3489
     33 N          64.3956   83.3562   12.4248 N.ar    1  UNL1       -0.0616
@<TRIPOS>BOND
     1    18    19    1
     2    19    20   ar
     3    20    21   ar
     4    21    22   ar
     5    22    25    1
     6    25    26    2
     7    25    27   am
     8    27    29    1
     9    29    30   ar
    10    30    31   ar
    11    31    32   ar
    12    32    33   ar
    13    22    23   ar
    14    23    24   ar
    15    24     1    1
    16     1     3    1
    17     3     4   ar
    18     4     5   ar
    19     5     6   ar
    20     6     7   ar
    21     7     8   ar
    22     8     9   ar
    23     9    10   ar
    24    10    11   ar
    25    11    12    1
    26    12    13   ar
    27    13    14   ar
    28    14    15   ar
    29    15    16   ar
    30    16    17   ar
    31    24    19   ar
    32     8     3   ar
    33    17    12   ar
    34    33    29   ar
    35    11     7   ar
    36    27    28    1
    37     1     2    1
@<TRIPOS>MOLECULE
*****
 33 37 0 0 0
SMALL
GASTEIGER

@<TRIPOS>ATOM
      1 N          62.3139   90.0393   13.6134 N.pl3   1  UNL1       -0.2980
      2 H          61.7150   89.7620   14.3439 H       1  UNL1        0.1536
      3 C          61.9509   89.7362   12.1898 C.ar    1  UNL1        0.1384
      4 N          61.3663   90.8094   11.3201 N.ar    1  UNL1       -0.2088
      5 C          61.0033   90.5062    9.8966 C.ar    1  UNL1        0.2014
      6 N          61.2248   89.1299    9.3429 N.ar    1  UNL1       -0.2047
      7 C          61.8094   88.0567   10.2127 C.ar    1  UNL1        0.1697
      8 C          62.1724   88.3598   11.6361 C.ar    1  UNL1        0.0884
      9 C          62.7273   87.1085   12.2496 C.ar    1  UNL1        0.1264
     10 N          62.7072   86.0320   11.2052 N.ar    1  UNL1       -0.1620
     11 N          62.1399   86.6180    9.9463 N.ar    1  UNL1       -0.2120
     12 C          61.9384   85.8927    8.6489 C.ar    1  UNL1        0.0844
     13 C          60.5879   85.8839    7.9964 C.ar    1  UNL1        0.0192
     14 C          60.3864   85.1586    6.6990 C.ar    1  UNL1        0.0015
     15 C          61.5356   84.4420    6.0540 C.ar    1  UNL1        0.0001
     16 C          62.8862   84.4508    6.7065 C.ar    1  UNL1        0.0015
     17 C          63.0876   85.1761    8.0040 C.ar    1  UNL1        0.0192
     18 C          63.4502   89.9554   16.3886 C.3     1  UNL1        0.0323
     19 C          64.1576   90.7230   15.3115 C.ar    1  UNL1       -0.0084
     20 C          65.4332   91.4486   15.6219 C.ar    1  UNL1       -0.0029
     21 C          66.1406   92.2162   14.5447 C.ar    1  UNL1        0.0043
     22 C          65.5725   92.2582   13.1571 C.ar    1  UNL1        0.0549
     23 C          64.2970   91.5325   12.8467 C.ar    1  UNL1        0.0188
     24 C          63.5895   90.7649   13.9238 C.ar    1  UNL1        0.0455
     25 C          66.2800   93.0258   12.0799 C.2     1  UNL1        0.2507
     26 O          67.6024   92.5442   11.5609 O.2     1  UNL1       -0.2698
     27 N          65.6650   94.2748   11.5216 N.am    1  UNL1       -0.2632
     28 H          64.7971   94.5908   11.8622 H       1  UNL1        0.1567
     29 C          66.3725   95.0423   10.4445 C.ar    1  UNL1        0.1767
     30 C          66.8052   94.5001    9.1145 C.ar    1  UNL1        0.0812
     31 C          67.4716   95.6095    8.3562 C.ar    1  UNL1        0.2152
     32 O          67.4507   96.8374    9.2175 O.2     1  UNL1       -0.3489
     33 N          66.7714   96.4869   10.5081 N.ar    1  UNL1       -0.0616
@<TRIPOS>BOND
     1    18    19    1
     2    19    20   ar
     3    20    21   ar
     4    21    22   ar
     5    22    25    1
     6    25    26    2
     7    25    27   am
     8    27    29    1
     9    29    30   ar
    10    30    31   ar
    11    31    32   ar
    12    32    33   ar
    13    22    23   ar
    14    23    24   ar
    15    24     1    1
    16     1     3    1
    17     3     4   ar
    18     4     5   ar
    19     5     6   ar
    20     6     7   ar
    21     7     8   ar
    22     8     9   ar
    23     9    10   ar
    24    10    11   ar
    25    11    12    1
    26    12    13   ar
    27    13    14   ar
    28    14    15   ar
    29    15    16   ar
    30    16    17   ar
    31    24    19   ar
    32     8     3   ar
    33    17    12   ar
    34    33    29   ar
    35    11     7   ar
    36    27    28    1
    37     1     2    1
@<TRIPOS>MOLECULE
*****
 33 37 0 0 0
SMALL
GASTEIGER

@<TRIPOS>ATOM
      1 N          64.6331   87.1714   14.7339 N.pl3   1  UNL1       -0.2980
      2 H          65.3273   86.6447   15.1920 H       1  UNL1        0.1536
      3 C          63.7801   86.5315   13.6789 C.ar    1  UNL1        0.1384
      4 N          63.5434   85.0505   13.7023 N.ar    1  UNL1       -0.2088
      5 C          62.6904   84.4106   12.6473 C.ar    1  UNL1        0.2014
      6 N          62.0741   85.2517   11.5690 N.ar    1  UNL1       -0.2047
      7 C          62.3109   86.7327   11.5457 C.ar    1  UNL1        0.1697
      8 C          63.1638   87.3726   12.6006 C.ar    1  UNL1        0.0884
      9 C          63.2191   88.8455   12.3217 C.ar    1  UNL1        0.1264
     10 N          62.4002   89.1158   11.0944 N.ar    1  UNL1       -0.1620
     11 N          61.8389   87.8100   10.6148 N.ar    1  UNL1       -0.2120
     12 C          60.9599   87.6157    9.4149 C.ar    1  UNL1        0.0844
     13 C          60.7875   86.2474    8.8251 C.ar    1  UNL1        0.0192
     14 C          59.9086   86.0531    7.6253 C.ar    1  UNL1        0.0015
     15 C          59.2019   87.2272    7.0152 C.ar    1  UNL1        0.0001
     16 C          59.3743   88.5955    7.6049 C.ar    1  UNL1        0.0015
     17 C          60.2533   88.7898    8.8048 C.ar    1  UNL1        0.0192
     18 C          62.8805   87.9085   17.0545 C.3     1  UNL1        0.0323
     19 C          63.5521   88.9824   16.2511 C.ar    1  UNL1       -0.0084
     20 C          63.3474   90.4249   16.6079 C.ar    1  UNL1       -0.0029
     21 C          64.0191   91.4989   15.8044 C.ar    1  UNL1        0.0043
     22 C          64.8953   91.1304   14.6441 C.ar    1  UNL1        0.0549
     23 C          65.1000   89.6879   14.2873 C.ar    1  UNL1        0.0188
     24 C          64.4285   88.6139   15.0907 C.ar    1  UNL1        0.0455
     25 C          65.5670   92.2044   13.8406 C.2     1  UNL1        0.2507
     26 O          66.1569   93.3988   14.5301 O.2     1  UNL1       -0.2698
     27 N          65.6487   92.0839   12.3478 N.am    1  UNL1       -0.2632
     28 H          65.2615   91.2999   11.8952 H       1  UNL1        0.1567
     29 C          66.3203   93.1578   11.5443 C.ar    1  UNL1        0.1767
     30 C          65.8489   94.5742   11.3974 C.ar    1  UNL1        0.0812
     31 C          66.8185   95.2958   10.5091 C.ar    1  UNL1        0.2152
     32 O          67.8892   94.3252   10.1069 O.2     1  UNL1       -0.3489
     33 N          67.5813   93.0040   10.7468 N.ar    1  UNL1       -0.0616
@<TRIPOS>BOND
     1    18    19    1
     2    19    20   ar
     3    20    21   ar
     4    21    22   ar
     5    22    25    1
     6    25    26    2
     7    25    27   am
     8    27    29    1
     9    29    30   ar
    10    30    31   ar
    11    31    32   ar
    12    32    33   ar
    13    22    23   ar
    14    23    24   ar
    15    24     1    1
    16     1     3    1
    17     3     4   ar
    18     4     5   ar
    19     5     6   ar
    20     6     7   ar
    21     7     8   ar
    22     8     9   ar
    23     9    10   ar
    24    10    11   ar
    25    11    12    1
    26    12    13   ar
    27    13    14   ar
    28    14    15   ar
    29    15    16   ar
    30    16    17   ar
    31    24    19   ar
    32     8     3   ar
    33    17    12   ar
    34    33    29   ar
    35    11     7   ar
    36    27    28    1
    37     1     2    1
@<TRIPOS>MOLECULE
*****
 33 37 0 0 0
SMALL
GASTEIGER

@<TRIPOS>ATOM
      1 N          62.3758   90.1881   13.0506 N.pl3   1  UNL1       -0.2980
      2 H          61.5730   90.5425   13.4968 H       1  UNL1        0.1536
      3 C          62.2625   89.0133   12.1249 C.ar    1  UNL1        0.1384
      4 N          61.6600   89.1874   10.7623 N.ar    1  UNL1       -0.2088
      5 C          61.5467   88.0126    9.8367 C.ar    1  UNL1        0.2014
      6 N          62.0359   86.6636   10.2736 N.ar    1  UNL1       -0.2047
      7 C          62.6384   86.4894   11.6361 C.ar    1  UNL1        0.1697
      8 C          62.7517   87.6643   12.5617 C.ar    1  UNL1        0.0884
      9 C          63.3863   87.1910   13.8359 C.ar    1  UNL1        0.1264
     10 N          63.6651   85.7237   13.6977 N.ar    1  UNL1       -0.1620
     11 N          63.2029   85.2901   12.3381 N.ar    1  UNL1       -0.2120
     12 C          63.2899   83.9010   11.7788 C.ar    1  UNL1        0.0844
     13 C          62.6577   82.7559   12.5129 C.ar    1  UNL1        0.0192
     14 C          62.7447   81.3668   11.9535 C.ar    1  UNL1        0.0015
     15 C          63.4640   81.1228   10.6600 C.ar    1  UNL1        0.0001
     16 C          64.0962   82.2680    9.9259 C.ar    1  UNL1        0.0015
     17 C          64.0092   83.6570   10.4853 C.ar    1  UNL1        0.0192
     18 C          63.7345   89.8450   15.7033 C.3     1  UNL1        0.0323
     19 C          64.3917   90.6515   14.6228 C.ar    1  UNL1       -0.0084
     20 C          65.7283   91.2864   14.8686 C.ar    1  UNL1       -0.0029
     21 C          66.3856   92.0930   13.7880 C.ar    1  UNL1        0.0043
     22 C          65.7063   92.2645   12.4617 C.ar    1  UNL1        0.0549
     23 C          64.3697   91.6296   12.2159 C.ar    1  UNL1        0.0188
     24 C          63.7124   90.8231   13.2964 C.ar    1  UNL1        0.0455
     25 C          66.3635   93.0711   11.3811 C.2     1  UNL1        0.2507
     26 O          67.6533   92.6029   10.7750 O.2     1  UNL1       -0.2698
     27 N          65.7311   94.3458   10.9067 N.am    1  UNL1       -0.2632
     28 H          64.8846   94.6531   11.3045 H       1  UNL1        0.1567
     29 C          66.3883   95.1522    9.8262 C.ar    1  UNL1        0.1767
     30 C          65.8161   96.3699    9.1630 C.ar    1  UNL1        0.0812
     31 C          66.8074   96.8529    8.1461 C.ar    1  UNL1        0.2152
     32 O          67.9923   95.9337    8.1808 O.2     1  UNL1       -0.3489
     33 N          67.7333   94.8826    9.2192 N.ar    1  UNL1       -0.0616
@<TRIPOS>BOND
     1    18    19    1
     2    19    20   ar
     3    20    21   ar
     4    21    22   ar
     5    22    25    1
     6    25    26    2
     7    25    27   am
     8    27    29    1
     9    29    30   ar
    10    30    31   ar
    11    31    32   ar
    12    32    33   ar
    13    22    23   ar
    14    23    24   ar
    15    24     1    1
    16     1     3    1
    17     3     4   ar
    18     4     5   ar
    19     5     6   ar
    20     6     7   ar
    21     7     8   ar
    22     8     9   ar
    23     9    10   ar
    24    10    11   ar
    25    11    12    1
    26    12    13   ar
    27    13    14   ar
    28    14    15   ar
    29    15    16   ar
    30    16    17   ar
    31    24    19   ar
    32     8     3   ar
    33    17    12   ar
    34    33    29   ar
    35    11     7   ar
    36    27    28    1
    37     1     2    1
@<TRIPOS>MOLECULE
*****
 33 37 0 0 0
SMALL
GASTEIGER

@<TRIPOS>ATOM
      1 N          61.5587   88.7612   11.9419 N.pl3   1  UNL1       -0.2980
      2 H          61.1292   88.5200   12.7943 H       1  UNL1        0.1536
      3 C          62.6389   89.8017   11.9142 C.ar    1  UNL1        0.1384
      4 N          62.7624   90.7234   10.7374 N.ar    1  UNL1       -0.2088
      5 C          63.8425   91.7639   10.7098 C.ar    1  UNL1        0.2014
      6 N          64.7991   91.8825   11.8591 N.ar    1  UNL1       -0.2047
      7 C          64.6755   90.9608   13.0360 C.ar    1  UNL1        0.1697
      8 C          63.5954   89.9204   13.0636 C.ar    1  UNL1        0.0884
      9 C          63.7190   89.1578   14.3494 C.ar    1  UNL1        0.1264
     10 N          64.8755   89.7270   15.1165 N.ar    1  UNL1       -0.1620
     11 N          65.4667   90.8413   14.3048 N.ar    1  UNL1       -0.2120
     12 C          66.6425   91.6876   14.6936 C.ar    1  UNL1        0.0844
     13 C          66.5716   92.5540   15.9159 C.ar    1  UNL1        0.0192
     14 C          67.7475   93.4002   16.3047 C.ar    1  UNL1        0.0015
     15 C          68.9944   93.3801   15.4711 C.ar    1  UNL1        0.0001
     16 C          69.0653   92.5137   14.2487 C.ar    1  UNL1        0.0015
     17 C          67.8894   91.6674   13.8599 C.ar    1  UNL1        0.0192
     18 C          62.0712   85.8312   11.5514 C.3     1  UNL1        0.0323
     19 C          61.3893   86.6231   10.4755 C.ar    1  UNL1       -0.0084
     20 C          60.9636   85.9501    9.2044 C.ar    1  UNL1       -0.0029
     21 C          60.2816   86.7422    8.1284 C.ar    1  UNL1        0.0043
     22 C          60.0254   88.2071    8.3236 C.ar    1  UNL1        0.0549
     23 C          60.4511   88.8801    9.5948 C.ar    1  UNL1        0.0188
     24 C          61.1330   88.0882   10.6707 C.ar    1  UNL1        0.0455
     25 C          59.3434   88.9992    7.2476 C.2     1  UNL1        0.2507
     26 O          57.9507   88.6409    6.8210 O.2     1  UNL1       -0.2698
     27 N          60.0541   90.1495    6.5983 N.am    1  UNL1       -0.2632
     28 H          60.9682   90.3846    6.8783 H       1  UNL1        0.1567
     29 C          59.3721   90.9414    5.5224 C.ar    1  UNL1        0.1767
     30 C          60.0509   91.6882    4.4126 C.ar    1  UNL1        0.0812
     31 C          58.9899   92.3340    3.5716 C.ar    1  UNL1        0.2152
     32 O          57.6553   91.9864    4.1618 O.2     1  UNL1       -0.3489
     33 N          57.8916   91.1257    5.3674 N.ar    1  UNL1       -0.0616
@<TRIPOS>BOND
     1    18    19    1
     2    19    20   ar
     3    20    21   ar
     4    21    22   ar
     5    22    25    1
     6    25    26    2
     7    25    27   am
     8    27    29    1
     9    29    30   ar
    10    30    31   ar
    11    31    32   ar
    12    32    33   ar
    13    22    23   ar
    14    23    24   ar
    15    24     1    1
    16     1     3    1
    17     3     4   ar
    18     4     5   ar
    19     5     6   ar
    20     6     7   ar
    21     7     8   ar
    22     8     9   ar
    23     9    10   ar
    24    10    11   ar
    25    11    12    1
    26    12    13   ar
    27    13    14   ar
    28    14    15   ar
    29    15    16   ar
    30    16    17   ar
    31    24    19   ar
    32     8     3   ar
    33    17    12   ar
    34    33    29   ar
    35    11     7   ar
    36    27    28    1
    37     1     2    1
@<TRIPOS>MOLECULE
*****
 33 37 0 0 0
SMALL
GASTEIGER

@<TRIPOS>ATOM
      1 N          61.7068   85.7443   12.0382 N.pl3   1  UNL1       -0.2980
      2 H          61.0394   85.1873   12.5003 H       1  UNL1        0.1536
      3 C          62.7146   86.5214   12.8323 C.ar    1  UNL1        0.1384
      4 N          63.4924   85.8460   13.9226 N.ar    1  UNL1       -0.2088
      5 C          64.5002   86.6231   14.7167 C.ar    1  UNL1        0.2014
      6 N          64.7300   88.0755   14.4205 N.ar    1  UNL1       -0.2047
      7 C          63.9521   88.7508   13.3302 C.ar    1  UNL1        0.1697
      8 C          62.9444   87.9738   12.5361 C.ar    1  UNL1        0.0884
      9 C          62.3320   88.9020   11.5294 C.ar    1  UNL1        0.1264
     10 N          62.9612   90.2527   11.7013 N.ar    1  UNL1       -0.1620
     11 N          63.9625   90.1593   12.8143 N.ar    1  UNL1       -0.2120
     12 C          64.8232   91.2779   13.3222 C.ar    1  UNL1        0.0844
     13 C          65.1695   91.3555   14.7796 C.ar    1  UNL1        0.0192
     14 C          66.0301   92.4741   15.2875 C.ar    1  UNL1        0.0015
     15 C          66.5445   93.5152   14.3379 C.ar    1  UNL1        0.0001
     16 C          66.1982   93.4376   12.8806 C.ar    1  UNL1        0.0015
     17 C          65.3376   92.3190   12.3727 C.ar    1  UNL1        0.0192
     18 C          63.6930   84.1319   10.4713 C.3     1  UNL1        0.0323
     19 C          62.7090   85.0098    9.7565 C.ar    1  UNL1       -0.0084
     20 C          62.7180   85.0815    8.2582 C.ar    1  UNL1       -0.0029
     21 C          61.7340   85.9594    7.5434 C.ar    1  UNL1        0.0043
     22 C          60.7409   86.7656    8.3268 C.ar    1  UNL1        0.0549
     23 C          60.7318   86.6939    9.8251 C.ar    1  UNL1        0.0188
     24 C          61.7158   85.8160   10.5399 C.ar    1  UNL1        0.0455
     25 C          59.7568   87.6436    7.6120 C.2     1  UNL1        0.2507
     26 O          58.3224   87.2210    7.4939 O.2     1  UNL1       -0.2698
     27 N          60.2072   88.9440    7.0154 N.am    1  UNL1       -0.2632
     28 H          61.1486   89.2214    7.0929 H       1  UNL1        0.1567
     29 C          59.2231   89.8219    6.3006 C.ar    1  UNL1        0.1767
     30 C          59.5595   90.9178    5.3332 C.ar    1  UNL1        0.0812
     31 C          58.2742   91.5312    4.8625 C.ar    1  UNL1        0.2152
     32 O          57.1434   90.8144    5.5390 O.2     1  UNL1       -0.3489
     33 N          57.7299   89.7580    6.4278 N.ar    1  UNL1       -0.0616
@<TRIPOS>BOND
     1    18    19    1
     2    19    20   ar
     3    20    21   ar
     4    21    22   ar
     5    22    25    1
     6    25    26    2
     7    25    27   am
     8    27    29    1
     9    29    30   ar
    10    30    31   ar
    11    31    32   ar
    12    32    33   ar
    13    22    23   ar
    14    23    24   ar
    15    24     1    1
    16     1     3    1
    17     3     4   ar
    18     4     5   ar
    19     5     6   ar
    20     6     7   ar
    21     7     8   ar
    22     8     9   ar
    23     9    10   ar
    24    10    11   ar
    25    11    12    1
    26    12    13   ar
    27    13    14   ar
    28    14    15   ar
    29    15    16   ar
    30    16    17   ar
    31    24    19   ar
    32     8     3   ar
    33    17    12   ar
    34    33    29   ar
    35    11     7   ar
    36    27    28    1
    37     1     2    1
@<TRIPOS>MOLECULE
*****
 33 37 0 0 0
SMALL
GASTEIGER

@<TRIPOS>ATOM
      1 N          61.7092   88.8221   12.4936 N.pl3   1  UNL1       -0.2980
      2 H          61.0725   88.6920   13.2331 H       1  UNL1        0.1536
      3 C          62.8966   89.7205   12.6754 C.ar    1  UNL1        0.1384
      4 N          63.6957   89.6599   13.9433 N.ar    1  UNL1       -0.2088
      5 C          64.8830   90.5583   14.1252 C.ar    1  UNL1        0.2014
      6 N          65.2712   91.5174   13.0391 N.ar    1  UNL1       -0.2047
      7 C          64.4720   91.5780   11.7712 C.ar    1  UNL1        0.1697
      8 C          63.2847   90.6796   11.5894 C.ar    1  UNL1        0.0884
      9 C          62.6921   90.9618   10.2405 C.ar    1  UNL1        0.1264
     10 N          63.5131   92.0347    9.5888 N.ar    1  UNL1       -0.1620
     11 N          64.6132   92.4155   10.5348 N.ar    1  UNL1       -0.2120
     12 C          65.6691   93.4518   10.2878 C.ar    1  UNL1        0.0844
     13 C          66.9664   93.0621    9.6434 C.ar    1  UNL1        0.0192
     14 C          68.0222   94.0985    9.3964 C.ar    1  UNL1        0.0015
     15 C          67.7809   95.5246    9.7937 C.ar    1  UNL1        0.0001
     16 C          66.4836   95.9143   10.4380 C.ar    1  UNL1        0.0015
     17 C          65.4277   94.8780   10.6851 C.ar    1  UNL1        0.0192
     18 C          62.9499   86.1345   12.0063 C.3     1  UNL1        0.0323
     19 C          62.1124   86.7781   10.9413 C.ar    1  UNL1       -0.0084
     20 C          61.8951   86.0779    9.6327 C.ar    1  UNL1       -0.0029
     21 C          61.0575   86.7215    8.5676 C.ar    1  UNL1        0.0043
     22 C          60.4372   88.0653    8.8113 C.ar    1  UNL1        0.0549
     23 C          60.6544   88.7655   10.1199 C.ar    1  UNL1        0.0188
     24 C          61.4920   88.1219   11.1849 C.ar    1  UNL1        0.0455
     25 C          59.5996   88.7090    7.7462 C.2     1  UNL1        0.2507
     26 O          58.3250   88.0572    7.2984 O.2     1  UNL1       -0.2698
     27 N          60.0366   90.0044    7.1291 N.am    1  UNL1       -0.2632
     28 H          60.8732   90.4322    7.4230 H       1  UNL1        0.1567
     29 C          59.1991   90.6480    6.0641 C.ar    1  UNL1        0.1767
     30 C          57.7104   90.5304    5.9221 C.ar    1  UNL1        0.0812
     31 C          57.2944   91.3319    4.7244 C.ar    1  UNL1        0.2152
     32 O          58.5259   91.9448    4.1262 O.2     1  UNL1       -0.3489
     33 N          59.7030   91.5221    4.9543 N.ar    1  UNL1       -0.0616
@<TRIPOS>BOND
     1    18    19    1
     2    19    20   ar
     3    20    21   ar
     4    21    22   ar
     5    22    25    1
     6    25    26    2
     7    25    27   am
     8    27    29    1
     9    29    30   ar
    10    30    31   ar
    11    31    32   ar
    12    32    33   ar
    13    22    23   ar
    14    23    24   ar
    15    24     1    1
    16     1     3    1
    17     3     4   ar
    18     4     5   ar
    19     5     6   ar
    20     6     7   ar
    21     7     8   ar
    22     8     9   ar
    23     9    10   ar
    24    10    11   ar
    25    11    12    1
    26    12    13   ar
    27    13    14   ar
    28    14    15   ar
    29    15    16   ar
    30    16    17   ar
    31    24    19   ar
    32     8     3   ar
    33    17    12   ar
    34    33    29   ar
    35    11     7   ar
    36    27    28    1
    37     1     2    1
