@<TRIPOS>MOLECULE
*****
 28 30 0 0 0
SMALL
GASTEIGER

@<TRIPOS>ATOM
      1 N          63.9082   90.0108   13.6375 N.ar    1  UNL1       -0.3138
      2 C          63.1387   90.1681   12.3596 C.ar    1  UNL1        0.1362
      3 N          63.7198   91.3292   11.6086 N.ar    1  UNL1       -0.2295
      4 C          64.8484   91.8896   12.4223 C.ar    1  UNL1        0.0984
      5 C          65.7852   93.0365   12.1835 C.ar    1  UNL1        0.0206
      6 C          66.8383   93.3686   13.1986 C.ar    1  UNL1        0.0055
      7 C          66.9547   92.5537   14.4526 C.ar    1  UNL1        0.0730
      8 C          66.0180   91.4068   14.6915 C.ar    1  UNL1        0.0226
      9 C          64.9649   91.0747   13.6763 C.ar    1  UNL1        0.0786
     10 C          68.0079   92.8859   15.4678 C.3     1  UNL1        0.4186
     11 F          69.0611   93.2180   16.4829 F       1  UNL1       -0.1659
     12 F          66.9400   93.1901   16.4762 F       1  UNL1       -0.1659
     13 F          69.0758   92.5816   14.4594 F       1  UNL1       -0.1659
     14 C          64.4355   87.6859   14.6703 C.3     1  UNL1        0.0265
     15 C          63.6639   88.9720   14.6917 C.3     1  UNL1        0.1073
     16 C          61.9898   89.3141   11.9114 C.3     1  UNL1        0.1319
     17 C          60.6876   89.9510   11.5259 C.3     1  UNL1        0.0270
     18 N          62.1431   87.8233   11.8487 N.3     1  UNL1       -0.1735
     19 H          61.4869   87.4312   12.5240 H       1  UNL1        0.1492
     20 S          61.9166   87.0998   10.5544 S.O2    1  UNL1        0.0621
     21 O          61.2701   85.9697   11.2993 O.2     1  UNL1       -0.1529
     22 O          62.5630   88.2300    9.8095 O.2     1  UNL1       -0.1529
     23 C          61.6900   86.3764    9.2601 C.ar    1  UNL1        0.1410
     24 C          62.8186   85.6335    8.6086 C.ar    1  UNL1        0.0231
     25 C          62.5920   84.9100    7.3143 C.ar    1  UNL1        0.0221
     26 C          61.2369   84.9294    6.6715 C.ar    1  UNL1        0.0990
     27 N          60.1083   85.6723    7.3229 N.ar    1  UNL1       -0.2409
     28 C          60.3348   86.3957    8.6172 C.ar    1  UNL1        0.1187
@<TRIPOS>BOND
     1    14    15    1
     2    15     1    1
     3     1     2   ar
     4     2    16    1
     5    16    17    1
     6    16    18    1
     7    18    20    1
     8    20    21    2
     9    20    22    2
    10    20    23    1
    11    23    24   ar
    12    24    25   ar
    13    25    26   ar
    14    26    27   ar
    15    27    28   ar
    16     2     3   ar
    17     3     4   ar
    18     4     5   ar
    19     5     6   ar
    20     6     7   ar
    21     7    10    1
    22    10    11    1
    23    10    12    1
    24    10    13    1
    25     7     8   ar
    26     8     9   ar
    27     9     1   ar
    28    28    23   ar
    29     9     4   ar
    30    18    19    1
@<TRIPOS>MOLECULE
*****
 28 30 0 0 0
SMALL
GASTEIGER

@<TRIPOS>ATOM
      1 N          62.2049   86.4674   11.1646 N.ar    1  UNL1       -0.3138
      2 C          62.7102   87.6903   11.8711 C.ar    1  UNL1        0.1362
      3 N          63.4904   87.2429   13.0716 N.ar    1  UNL1       -0.2295
      4 C          63.4672   85.7435   13.1071 C.ar    1  UNL1        0.0984
      5 C          64.0669   84.7527   14.0603 C.ar    1  UNL1        0.0206
      6 C          63.8721   83.2826   13.8349 C.ar    1  UNL1        0.0055
      7 C          63.0777   82.8033   12.6563 C.ar    1  UNL1        0.0730
      8 C          62.4780   83.7941   11.7031 C.ar    1  UNL1        0.0226
      9 C          62.6728   85.2642   11.9285 C.ar    1  UNL1        0.0786
     10 C          62.8829   81.3331   12.4309 C.3     1  UNL1        0.4186
     11 F          62.6881   79.8631   12.2055 F       1  UNL1       -0.1659
     12 F          62.6845   81.1335   13.9042 F       1  UNL1       -0.1659
     13 F          63.0812   81.5328   10.9576 F       1  UNL1       -0.1659
     14 C          61.9766   85.9744    8.6240 C.3     1  UNL1        0.0265
     15 C          61.3771   86.4506    9.9138 C.3     1  UNL1        0.1073
     16 C          62.4765   89.1112   11.4509 C.3     1  UNL1        0.1319
     17 C          62.2839   89.4424   10.0007 C.3     1  UNL1        0.0270
     18 N          62.4353   90.2008   12.4809 N.3     1  UNL1       -0.1735
     19 H          62.0031   89.8020   13.3143 H       1  UNL1        0.1492
     20 S          63.7068   90.8605   12.9261 S.O2    1  UNL1        0.0621
     21 O          63.9590   91.3223   11.5214 O.2     1  UNL1       -0.1529
     22 O          63.4546   90.3988   14.3308 O.2     1  UNL1       -0.1529
     23 C          64.9782   91.5202   13.3712 C.ar    1  UNL1        0.1410
     24 C          65.6856   91.0327   14.6008 C.ar    1  UNL1        0.0231
     25 C          66.9570   91.6924   15.0459 C.ar    1  UNL1        0.0221
     26 C          67.5212   92.8397   14.2615 C.ar    1  UNL1        0.0990
     27 N          66.8138   93.3273   13.0318 N.ar    1  UNL1       -0.2409
     28 C          65.5424   92.6676   12.5867 C.ar    1  UNL1        0.1187
@<TRIPOS>BOND
     1    14    15    1
     2    15     1    1
     3     1     2   ar
     4     2    16    1
     5    16    17    1
     6    16    18    1
     7    18    20    1
     8    20    21    2
     9    20    22    2
    10    20    23    1
    11    23    24   ar
    12    24    25   ar
    13    25    26   ar
    14    26    27   ar
    15    27    28   ar
    16     2     3   ar
    17     3     4   ar
    18     4     5   ar
    19     5     6   ar
    20     6     7   ar
    21     7    10    1
    22    10    11    1
    23    10    12    1
    24    10    13    1
    25     7     8   ar
    26     8     9   ar
    27     9     1   ar
    28    28    23   ar
    29     9     4   ar
    30    18    19    1
@<TRIPOS>MOLECULE
*****
 28 30 0 0 0
SMALL
GASTEIGER

@<TRIPOS>ATOM
      1 N          63.9706   89.5915   13.8073 N.ar    1  UNL1       -0.3138
      2 C          64.3489   91.0430   13.8161 C.ar    1  UNL1        0.1362
      3 N          63.8919   91.6489   12.5223 N.ar    1  UNL1       -0.2295
      4 C          63.2311   90.5719   11.7139 C.ar    1  UNL1        0.0984
      5 C          62.5913   90.5849   10.3572 C.ar    1  UNL1        0.0206
      6 C          62.0003   89.3262    9.7948 C.ar    1  UNL1        0.0055
      7 C          62.0490   88.0546   10.5890 C.ar    1  UNL1        0.0730
      8 C          62.6887   88.0417   11.9456 C.ar    1  UNL1        0.0226
      9 C          63.2797   89.3004   12.5081 C.ar    1  UNL1        0.0786
     10 C          61.4579   86.7959   10.0265 C.3     1  UNL1        0.4186
     11 F          60.8668   85.5373    9.4640 F       1  UNL1       -0.1659
     12 F          62.4124   86.8638    8.8714 F       1  UNL1       -0.1659
     13 F          60.5033   86.7281   11.1815 F       1  UNL1       -0.1659
     14 C          64.4784   87.1616   14.5739 C.3     1  UNL1        0.0265
     15 C          64.2365   88.6044   14.9050 C.3     1  UNL1        0.1073
     16 C          65.0596   91.7622   14.9241 C.3     1  UNL1        0.1319
     17 C          64.4878   91.7550   16.3108 C.3     1  UNL1        0.0270
     18 N          66.3419   92.4888   14.6454 N.3     1  UNL1       -0.1735
     19 H          67.0968   91.8981   14.9942 H       1  UNL1        0.1492
     20 S          66.7007   92.8641   13.2381 S.O2    1  UNL1        0.0621
     21 O          67.4877   91.5945   13.1002 O.2     1  UNL1       -0.1529
     22 O          65.9138   94.1336   13.3760 O.2     1  UNL1       -0.1529
     23 C          67.0596   93.2394   11.8309 C.ar    1  UNL1        0.1410
     24 C          67.8372   92.2841   10.9750 C.ar    1  UNL1        0.0231
     25 C          68.1961   92.6594    9.5677 C.ar    1  UNL1        0.0221
     26 C          67.7772   93.9900    9.0164 C.ar    1  UNL1        0.0990
     27 N          66.9995   94.9453    9.8723 N.ar    1  UNL1       -0.2409
     28 C          66.6406   94.5700   11.2795 C.ar    1  UNL1        0.1187
@<TRIPOS>BOND
     1    14    15    1
     2    15     1    1
     3     1     2   ar
     4     2    16    1
     5    16    17    1
     6    16    18    1
     7    18    20    1
     8    20    21    2
     9    20    22    2
    10    20    23    1
    11    23    24   ar
    12    24    25   ar
    13    25    26   ar
    14    26    27   ar
    15    27    28   ar
    16     2     3   ar
    17     3     4   ar
    18     4     5   ar
    19     5     6   ar
    20     6     7   ar
    21     7    10    1
    22    10    11    1
    23    10    12    1
    24    10    13    1
    25     7     8   ar
    26     8     9   ar
    27     9     1   ar
    28    28    23   ar
    29     9     4   ar
    30    18    19    1
@<TRIPOS>MOLECULE
*****
 28 30 0 0 0
SMALL
GASTEIGER

@<TRIPOS>ATOM
      1 N          63.2284   83.5886   11.8746 N.ar    1  UNL1       -0.3138
      2 C          62.9156   84.3493   13.1289 C.ar    1  UNL1        0.1362
      3 N          62.2509   85.6357   12.7373 N.ar    1  UNL1       -0.2295
      4 C          62.1530   85.6700   11.2408 C.ar    1  UNL1        0.0984
      5 C          61.5918   86.6898   10.2949 C.ar    1  UNL1        0.0206
      6 C          61.6347   86.4445    8.8157 C.ar    1  UNL1        0.0055
      7 C          62.2389   85.1793    8.2826 C.ar    1  UNL1        0.0730
      8 C          62.8001   84.1594    9.2285 C.ar    1  UNL1        0.0226
      9 C          62.7572   84.4048   10.7077 C.ar    1  UNL1        0.0786
     10 C          62.2818   84.9340    6.8033 C.3     1  UNL1        0.4186
     11 F          62.3246   84.6886    5.3242 F       1  UNL1       -0.1659
     12 F          63.7809   84.9159    6.8497 F       1  UNL1       -0.1659
     13 F          60.7826   84.9520    6.7569 F       1  UNL1       -0.1659
     14 C          63.0743   81.0127   11.5728 C.3     1  UNL1        0.0265
     15 C          63.8955   82.2471   11.8001 C.3     1  UNL1        0.1073
     16 C          63.2148   83.9021   14.5291 C.3     1  UNL1        0.1319
     17 C          62.5639   82.6669   15.0772 C.3     1  UNL1        0.0270
     18 N          64.1651   84.6901   15.3812 N.3     1  UNL1       -0.1735
     19 H          65.1043   84.4891   15.0379 H       1  UNL1        0.1492
     20 S          64.0423   86.1831   15.4577 S.O2    1  UNL1        0.0621
     21 O          65.3495   86.3276   14.7364 O.2     1  UNL1       -0.1529
     22 O          62.7350   86.0386   16.1789 O.2     1  UNL1       -0.1529
     23 C          63.9194   87.6761   15.5342 C.ar    1  UNL1        0.1410
     24 C          64.4900   88.5325   14.4428 C.ar    1  UNL1        0.0231
     25 C          64.3672   90.0255   14.5193 C.ar    1  UNL1        0.0221
     26 C          63.6738   90.6621   15.6871 C.ar    1  UNL1        0.0990
     27 N          63.1032   89.8058   16.7786 N.ar    1  UNL1       -0.2409
     28 C          63.2261   88.3128   16.7021 C.ar    1  UNL1        0.1187
@<TRIPOS>BOND
     1    14    15    1
     2    15     1    1
     3     1     2   ar
     4     2    16    1
     5    16    17    1
     6    16    18    1
     7    18    20    1
     8    20    21    2
     9    20    22    2
    10    20    23    1
    11    23    24   ar
    12    24    25   ar
    13    25    26   ar
    14    26    27   ar
    15    27    28   ar
    16     2     3   ar
    17     3     4   ar
    18     4     5   ar
    19     5     6   ar
    20     6     7   ar
    21     7    10    1
    22    10    11    1
    23    10    12    1
    24    10    13    1
    25     7     8   ar
    26     8     9   ar
    27     9     1   ar
    28    28    23   ar
    29     9     4   ar
    30    18    19    1
@<TRIPOS>MOLECULE
*****
 28 30 0 0 0
SMALL
GASTEIGER

@<TRIPOS>ATOM
      1 N          62.5866   89.2172   11.8757 N.ar    1  UNL1       -0.3138
      2 C          63.1481   88.9956   13.2489 C.ar    1  UNL1        0.1362
      3 N          63.3996   87.5263   13.4153 N.ar    1  UNL1       -0.2295
      4 C          62.9935   86.8397   12.1450 C.ar    1  UNL1        0.0984
      5 C          63.0164   85.3979   11.7317 C.ar    1  UNL1        0.0206
      6 C          62.5367   85.0012   10.3670 C.ar    1  UNL1        0.0055
      7 C          62.0342   86.0463    9.4155 C.ar    1  UNL1        0.0730
      8 C          62.0114   87.4880    9.8287 C.ar    1  UNL1        0.0226
      9 C          62.4910   87.8847   11.1935 C.ar    1  UNL1        0.0786
     10 C          61.5546   85.6495    8.0507 C.3     1  UNL1        0.4186
     11 F          61.0749   85.2528    6.6860 F       1  UNL1       -0.1659
     12 F          62.9514   85.2524    7.6752 F       1  UNL1       -0.1659
     13 F          60.1578   86.0467    8.4262 F       1  UNL1       -0.1659
     14 C          63.0870   91.2179   10.2957 C.3     1  UNL1        0.0265
     15 C          62.1902   90.5391   11.2880 C.3     1  UNL1        0.1073
     16 C          63.4119   90.0571   14.2754 C.3     1  UNL1        0.1319
     17 C          63.1726   89.7713   15.7283 C.3     1  UNL1        0.0270
     18 N          63.9149   91.4043   13.8491 N.3     1  UNL1       -0.1735
     19 H          63.2844   92.0959   14.2547 H       1  UNL1        0.1492
     20 S          65.3094   91.8302   14.2015 S.O2    1  UNL1        0.0621
     21 O          64.8963   91.9974   15.6338 O.2     1  UNL1       -0.1529
     22 O          65.7224   91.6630   12.7692 O.2     1  UNL1       -0.1529
     23 C          66.7038   92.2561   14.5539 C.ar    1  UNL1        0.1410
     24 C          66.9514   93.0582   15.7970 C.ar    1  UNL1        0.0231
     25 C          68.3458   93.4841   16.1494 C.ar    1  UNL1        0.0221
     26 C          69.4926   93.1079   15.2588 C.ar    1  UNL1        0.0990
     27 N          69.2450   92.3058   14.0156 N.ar    1  UNL1       -0.2409
     28 C          67.8506   91.8799   13.6632 C.ar    1  UNL1        0.1187
@<TRIPOS>BOND
     1    14    15    1
     2    15     1    1
     3     1     2   ar
     4     2    16    1
     5    16    17    1
     6    16    18    1
     7    18    20    1
     8    20    21    2
     9    20    22    2
    10    20    23    1
    11    23    24   ar
    12    24    25   ar
    13    25    26   ar
    14    26    27   ar
    15    27    28   ar
    16     2     3   ar
    17     3     4   ar
    18     4     5   ar
    19     5     6   ar
    20     6     7   ar
    21     7    10    1
    22    10    11    1
    23    10    12    1
    24    10    13    1
    25     7     8   ar
    26     8     9   ar
    27     9     1   ar
    28    28    23   ar
    29     9     4   ar
    30    18    19    1
@<TRIPOS>MOLECULE
*****
 28 30 0 0 0
SMALL
GASTEIGER

@<TRIPOS>ATOM
      1 N          62.7853   87.8767   12.0305 N.ar    1  UNL1       -0.3138
      2 C          62.7267   89.2626   12.6012 C.ar    1  UNL1        0.1362
      3 N          61.8389   90.0898   11.7193 N.ar    1  UNL1       -0.2295
      4 C          61.3488   89.2150   10.6037 C.ar    1  UNL1        0.0984
      5 C          60.4456   89.4873    9.4375 C.ar    1  UNL1        0.0206
      6 C          60.1272   88.3917    8.4637 C.ar    1  UNL1        0.0055
      7 C          60.7122   87.0239    8.6560 C.ar    1  UNL1        0.0730
      8 C          61.6155   86.7517    9.8221 C.ar    1  UNL1        0.0226
      9 C          61.9338   87.8472   10.7960 C.ar    1  UNL1        0.0786
     10 C          60.3938   85.9283    7.6821 C.3     1  UNL1        0.4186
     11 F          60.0755   84.8328    6.7082 F       1  UNL1       -0.1659
     12 F          58.9449   86.3144    7.7214 F       1  UNL1       -0.1659
     13 F          61.8427   85.5423    7.6428 F       1  UNL1       -0.1659
     14 C          62.9057   85.3808   12.7417 C.3     1  UNL1        0.0265
     15 C          63.5596   86.7227   12.5952 C.3     1  UNL1        0.1073
     16 C          63.4320   89.7380   13.8367 C.3     1  UNL1        0.1319
     17 C          63.8685   88.7505   14.8780 C.3     1  UNL1        0.0270
     18 N          63.7008   91.2008   14.0310 N.3     1  UNL1       -0.1735
     19 H          63.0978   91.5124   14.7924 H       1  UNL1        0.1492
     20 S          65.0873   91.6719   14.3561 S.O2    1  UNL1        0.0621
     21 O          65.5129   91.3929   12.9451 O.2     1  UNL1       -0.1529
     22 O          64.6616   91.9510   15.7671 O.2     1  UNL1       -0.1529
     23 C          66.4738   92.1430   14.6812 C.ar    1  UNL1        0.1410
     24 C          66.7456   92.8302   15.9865 C.ar    1  UNL1        0.0231
     25 C          68.1321   93.3013   16.3116 C.ar    1  UNL1        0.0221
     26 C          69.2468   93.0852   15.3314 C.ar    1  UNL1        0.0990
     27 N          68.9750   92.3980   14.0260 N.ar    1  UNL1       -0.2409
     28 C          67.5885   91.9269   13.7009 C.ar    1  UNL1        0.1187
@<TRIPOS>BOND
     1    14    15    1
     2    15     1    1
     3     1     2   ar
     4     2    16    1
     5    16    17    1
     6    16    18    1
     7    18    20    1
     8    20    21    2
     9    20    22    2
    10    20    23    1
    11    23    24   ar
    12    24    25   ar
    13    25    26   ar
    14    26    27   ar
    15    27    28   ar
    16     2     3   ar
    17     3     4   ar
    18     4     5   ar
    19     5     6   ar
    20     6     7   ar
    21     7    10    1
    22    10    11    1
    23    10    12    1
    24    10    13    1
    25     7     8   ar
    26     8     9   ar
    27     9     1   ar
    28    28    23   ar
    29     9     4   ar
    30    18    19    1
@<TRIPOS>MOLECULE
*****
 28 30 0 0 0
SMALL
GASTEIGER

@<TRIPOS>ATOM
      1 N          63.6103   88.0794   13.0788 N.ar    1  UNL1       -0.3138
      2 C          63.0606   88.9930   12.0238 C.ar    1  UNL1        0.1362
      3 N          62.3912   88.1474   10.9814 N.ar    1  UNL1       -0.2295
      4 C          62.5271   86.7111   11.3921 C.ar    1  UNL1        0.0984
      5 C          62.0621   85.4361   10.7532 C.ar    1  UNL1        0.0206
      6 C          62.3506   84.1192   11.4107 C.ar    1  UNL1        0.0055
      7 C          63.1041   84.0771   12.7070 C.ar    1  UNL1        0.0730
      8 C          63.5690   85.3521   13.3459 C.ar    1  UNL1        0.0226
      9 C          63.2806   86.6691   12.6885 C.ar    1  UNL1        0.0786
     10 C          63.3925   82.7601   13.3645 C.3     1  UNL1        0.4186
     11 F          63.6810   81.4430   14.0219 F       1  UNL1       -0.1659
     12 F          64.6113   83.3494   14.0104 F       1  UNL1       -0.1659
     13 F          62.1738   82.1707   12.7186 F       1  UNL1       -0.1659
     14 C          63.7412   88.3158   15.6628 C.3     1  UNL1        0.0265
     15 C          64.3584   88.5018   14.3085 C.3     1  UNL1        0.1073
     16 C          63.1625   90.4895   12.0131 C.3     1  UNL1        0.1319
     17 C          63.1275   91.2343   10.7116 C.3     1  UNL1        0.0270
     18 N          63.2995   91.2412   13.3039 N.3     1  UNL1       -0.1735
     19 H          62.8858   90.6567   14.0303 H       1  UNL1        0.1492
     20 S          64.6576   91.6464   13.7953 S.O2    1  UNL1        0.0621
     21 O          65.1820   91.5919   12.3910 O.2     1  UNL1       -0.1529
     22 O          64.1331   91.7009   15.1996 O.2     1  UNL1       -0.1529
     23 C          66.0156   92.0516   14.2868 C.ar    1  UNL1        0.1410
     24 C          66.1955   92.5047   15.7053 C.ar    1  UNL1        0.0231
     25 C          67.5535   92.9099   16.1968 C.ar    1  UNL1        0.0221
     26 C          68.7317   92.8621   15.2697 C.ar    1  UNL1        0.0990
     27 N          68.5518   92.4091   13.8510 N.ar    1  UNL1       -0.2409
     28 C          67.1938   92.0038   13.3596 C.ar    1  UNL1        0.1187
@<TRIPOS>BOND
     1    14    15    1
     2    15     1    1
     3     1     2   ar
     4     2    16    1
     5    16    17    1
     6    16    18    1
     7    18    20    1
     8    20    21    2
     9    20    22    2
    10    20    23    1
    11    23    24   ar
    12    24    25   ar
    13    25    26   ar
    14    26    27   ar
    15    27    28   ar
    16     2     3   ar
    17     3     4   ar
    18     4     5   ar
    19     5     6   ar
    20     6     7   ar
    21     7    10    1
    22    10    11    1
    23    10    12    1
    24    10    13    1
    25     7     8   ar
    26     8     9   ar
    27     9     1   ar
    28    28    23   ar
    29     9     4   ar
    30    18    19    1
@<TRIPOS>MOLECULE
*****
 28 30 0 0 0
SMALL
GASTEIGER

@<TRIPOS>ATOM
      1 N          60.8216   88.2155    9.5992 N.ar    1  UNL1       -0.3138
      2 C          61.2251   88.3444   11.0381 C.ar    1  UNL1        0.1362
      3 N          62.0799   87.1624   11.3875 N.ar    1  UNL1       -0.2295
      4 C          62.2047   86.3029   10.1646 C.ar    1  UNL1        0.0984
      5 C          62.9260   85.0117    9.9146 C.ar    1  UNL1        0.0206
      6 C          62.8696   84.3714    8.5594 C.ar    1  UNL1        0.0055
      7 C          62.0919   85.0222    7.4541 C.ar    1  UNL1        0.0730
      8 C          61.3706   86.3134    7.7040 C.ar    1  UNL1        0.0226
      9 C          61.4270   86.9537    9.0593 C.ar    1  UNL1        0.0786
     10 C          62.0356   84.3818    6.0988 C.3     1  UNL1        0.4186
     11 F          61.9792   83.7414    4.7436 F       1  UNL1       -0.1659
     12 F          63.5220   84.5325    5.9657 F       1  UNL1       -0.1659
     13 F          60.5492   84.2310    6.2319 F       1  UNL1       -0.1659
     14 C          59.3327   88.7578    7.5403 C.3     1  UNL1        0.0265
     15 C          59.9633   89.1790    8.8344 C.3     1  UNL1        0.1073
     16 C          60.8412   89.4596   11.9649 C.3     1  UNL1        0.1319
     17 C          59.5065   90.1288   11.8207 C.3     1  UNL1        0.0270
     18 N          61.7919   89.9057   13.0359 N.3     1  UNL1       -0.1735
     19 H          62.1027   89.0648   13.5226 H       1  UNL1        0.1492
     20 S          63.0263   90.6754   12.6700 S.O2    1  UNL1        0.0621
     21 O          62.4215   91.0128   11.3395 O.2     1  UNL1       -0.1529
     22 O          63.6311   90.3379   14.0006 O.2     1  UNL1       -0.1529
     23 C          64.2607   91.4451   12.3041 C.ar    1  UNL1        0.1410
     24 C          64.4347   91.9637   10.9075 C.ar    1  UNL1        0.0231
     25 C          65.6690   92.7334   10.5416 C.ar    1  UNL1        0.0221
     26 C          66.7294   92.9845   11.5724 C.ar    1  UNL1        0.0990
     27 N          66.5554   92.4659   12.9691 N.ar    1  UNL1       -0.2409
     28 C          65.3211   91.6961   13.3350 C.ar    1  UNL1        0.1187
@<TRIPOS>BOND
     1    14    15    1
     2    15     1    1
     3     1     2   ar
     4     2    16    1
     5    16    17    1
     6    16    18    1
     7    18    20    1
     8    20    21    2
     9    20    22    2
    10    20    23    1
    11    23    24   ar
    12    24    25   ar
    13    25    26   ar
    14    26    27   ar
    15    27    28   ar
    16     2     3   ar
    17     3     4   ar
    18     4     5   ar
    19     5     6   ar
    20     6     7   ar
    21     7    10    1
    22    10    11    1
    23    10    12    1
    24    10    13    1
    25     7     8   ar
    26     8     9   ar
    27     9     1   ar
    28    28    23   ar
    29     9     4   ar
    30    18    19    1
@<TRIPOS>MOLECULE
*****
 28 30 0 0 0
SMALL
GASTEIGER

@<TRIPOS>ATOM
      1 N          63.8235   87.6446   13.5974 N.ar    1  UNL1       -0.3138
      2 C          63.4743   88.9979   13.0529 C.ar    1  UNL1        0.1362
      3 N          62.7370   88.8017   11.7614 N.ar    1  UNL1       -0.2295
      4 C          62.6306   87.3271   11.5078 C.ar    1  UNL1        0.0984
      5 C          62.0090   86.5432   10.3902 C.ar    1  UNL1        0.0206
      6 C          62.0590   85.0441   10.4074 C.ar    1  UNL1        0.0055
      7 C          62.7305   84.3290   11.5422 C.ar    1  UNL1        0.0730
      8 C          63.3521   85.1130   12.6597 C.ar    1  UNL1        0.0226
      9 C          63.3021   86.6120   12.6426 C.ar    1  UNL1        0.0786
     10 C          62.7804   82.8299   11.5593 C.3     1  UNL1        0.4186
     11 F          62.8303   81.3309   11.5765 F       1  UNL1       -0.1659
     12 F          63.4190   82.8356   10.2021 F       1  UNL1       -0.1659
     13 F          62.1418   82.8242   12.9165 F       1  UNL1       -0.1659
     14 C          63.9184   86.5601   15.9564 C.3     1  UNL1        0.0265
     15 C          64.5642   87.3718   14.8730 C.3     1  UNL1        0.1073
     16 C          63.8043   90.3161   13.6882 C.3     1  UNL1        0.1319
     17 C          64.3171   90.3621   15.0970 C.3     1  UNL1        0.0270
     18 N          63.6216   91.5881   12.9147 N.3     1  UNL1       -0.1735
     19 H          63.3790   92.3119   13.5912 H       1  UNL1        0.1492
     20 S          64.7481   92.1303   12.0858 S.O2    1  UNL1        0.0621
     21 O          64.1044   91.5770   10.8490 O.2     1  UNL1       -0.1529
     22 O          65.3918   92.6836   13.3225 O.2     1  UNL1       -0.1529
     23 C          65.8746   92.6725   11.2569 C.ar    1  UNL1        0.1410
     24 C          65.6471   93.8568   10.3650 C.ar    1  UNL1        0.0231
     25 C          66.7736   94.3990    9.5362 C.ar    1  UNL1        0.0221
     26 C          68.1276   93.7568    9.5991 C.ar    1  UNL1        0.0990
     27 N          68.3553   92.5723   10.4910 N.ar    1  UNL1       -0.2409
     28 C          67.2288   92.0302   11.3199 C.ar    1  UNL1        0.1187
@<TRIPOS>BOND
     1    14    15    1
     2    15     1    1
     3     1     2   ar
     4     2    16    1
     5    16    17    1
     6    16    18    1
     7    18    20    1
     8    20    21    2
     9    20    22    2
    10    20    23    1
    11    23    24   ar
    12    24    25   ar
    13    25    26   ar
    14    26    27   ar
    15    27    28   ar
    16     2     3   ar
    17     3     4   ar
    18     4     5   ar
    19     5     6   ar
    20     6     7   ar
    21     7    10    1
    22    10    11    1
    23    10    12    1
    24    10    13    1
    25     7     8   ar
    26     8     9   ar
    27     9     1   ar
    28    28    23   ar
    29     9     4   ar
    30    18    19    1
