@<TRIPOS>MOLECULE
*****
 43 47 0 0 0
SMALL
GASTEIGER

@<TRIPOS>ATOM
      1 C          60.7661   89.5821   11.7665 C.3     1  UNL1        0.1443
      2 O          59.5984   90.5086   11.9338 O.3     1  UNL1       -0.3813
      3 H          58.8350   90.1575   11.4492 H       1  UNL1        0.2105
      4 C          62.0768   89.9013   12.4224 C.3     1  UNL1        0.1041
      5 C          63.0782   89.3475   14.7549 C.2     1  UNL1        0.2497
      6 O          63.9614   88.3089   14.1291 O.2     1  UNL1       -0.2725
      7 N          62.1359   90.1437   13.9015 N.am    1  UNL1       -0.3012
      8 H          61.5563   90.8253   14.3122 H       1  UNL1        0.1495
      9 C          63.1374   89.5899   16.2340 C.3     1  UNL1        0.1909
     10 C          63.0783   88.4326   17.1865 C.3     1  UNL1        0.0420
     11 C          64.4658   91.8135   16.4350 C.3     1  UNL1        0.1747
     12 O          63.2556   90.9894   16.7605 O.3     1  UNL1       -0.3444
     13 C          63.3283   89.9782   11.5992 C.3     1  UNL1        0.0485
     14 C          64.2270   91.1740   11.7106 C.ar    1  UNL1       -0.0172
     15 C          64.9001   91.4875   13.0139 C.ar    1  UNL1       -0.0009
     16 C          65.7988   92.6832   13.1253 C.ar    1  UNL1        0.0399
     17 C          66.0245   93.5655   11.9334 C.ar    1  UNL1        0.1764
     18 C          65.3515   93.2520   10.6300 C.ar    1  UNL1        0.1761
     19 C          64.4527   92.0562   10.5186 C.ar    1  UNL1        0.0360
     20 O          65.7609   94.2961    9.6339 O.3     1  UNL1       -0.4346
     21 C          66.6870   95.2549   10.3217 C.3     1  UNL1        0.4294
     22 O          66.8499   94.8034   11.7428 O.3     1  UNL1       -0.4346
     23 C          60.6231   88.3363   10.9434 C.3     1  UNL1        0.1001
     24 N          61.1532   87.0314   11.4594 N.3     1  UNL1       -0.2928
     25 H          60.3688   86.5466   11.8953 H       1  UNL1        0.1236
     26 C          61.7946   86.0569   10.5164 C.3     1  UNL1        0.0849
     27 C          61.4380   86.0775    9.0596 C.3     1  UNL1        0.0604
     28 C          62.0793   85.1030    8.1166 C.3     1  UNL1        0.1363
     29 C          61.1579   85.9217    7.2616 C.3     1  UNL1        0.0402
     30 C          61.5750   85.1321    6.0563 C.3     1  UNL1        0.0072
     31 C          62.4964   84.3135    6.9113 C.3     1  UNL1        0.0402
     32 O          63.0772   84.1080    8.6306 O.3     1  UNL1       -0.4676
     33 C          63.4337   84.0874   10.0874 C.ar    1  UNL1        0.2216
     34 N          64.4317   83.0924   10.6013 N.ar    1  UNL1       -0.2107
     35 C          64.7882   83.0718   12.0582 C.ar    1  UNL1        0.0977
     36 C          64.1469   84.0463   13.0011 C.ar    1  UNL1       -0.0031
     37 C          63.1490   85.0413   12.4872 C.ar    1  UNL1       -0.0011
     38 C          62.7925   85.0619   11.0304 C.ar    1  UNL1        0.0449
     39 C          64.5035   84.0257   14.4580 C.3     1  UNL1        0.0279
     40 C          63.5124   84.4995   15.4795 C.3     1  UNL1        0.0041
     41 C          62.6584   83.2965   15.2088 C.3     1  UNL1        0.0003
     42 C          64.3665   85.7027   15.7501 C.3     1  UNL1        0.0003
     43 C          62.5213   84.9733   16.5009 C.3     1  UNL1        0.0003
@<TRIPOS>BOND
     1    11    12    1
     2    12     9    1
     3     9    10    1
     4     9     5    1
     5     5     6    2
     6     5     7   am
     7     7     4    1
     8     4    13    1
     9    13    14    1
    10    14    15   ar
    11    15    16   ar
    12    16    17   ar
    13    17    18   ar
    14    18    19   ar
    15    18    20    1
    16    20    21    1
    17    21    22    1
    18     4     1    1
    19     1     2    1
    20     1    23    1
    21    23    24    1
    22    26    24    1
    23    26    27    1
    24    27    28    1
    25    28    29    1
    26    29    30    1
    27    30    31    1
    28    28    32    1
    29    32    33    1
    30    33    34   ar
    31    34    35   ar
    32    35    36   ar
    33    36    39    1
    34    39    40    1
    35    40    41    1
    36    40    42    1
    37    40    43    1
    38    36    37   ar
    39    37    38   ar
    40    19    14   ar
    41    38    26    1
    42    22    17    1
    43    31    28    1
    44    38    33   ar
    45     7     8    1
    46     2     3    1
    47    24    25    1
@<TRIPOS>MOLECULE
*****
 43 47 0 0 0
SMALL
GASTEIGER

@<TRIPOS>ATOM
      1 C          62.6675   90.9775   11.1035 C.3     1  UNL1        0.1443
      2 O          62.8042   91.1279    9.6173 O.3     1  UNL1       -0.3813
      3 H          62.0627   90.6830    9.1778 H       1  UNL1        0.2105
      4 C          63.6941   91.5802   12.0159 C.3     1  UNL1        0.1041
      5 C          63.7245   90.3603   14.3096 C.2     1  UNL1        0.2497
      6 O          64.2148   89.1114   13.6389 O.2     1  UNL1       -0.2725
      7 N          63.4642   91.5947   13.4981 N.am    1  UNL1       -0.3012
      8 H          63.1424   92.4144   13.9383 H       1  UNL1        0.1495
      9 C          63.4945   90.3748   15.7918 C.3     1  UNL1        0.1909
     10 C          63.2457   89.0899   16.5247 C.3     1  UNL1        0.0420
     11 C          64.8214   92.3035   16.9184 C.3     1  UNL1        0.1747
     12 O          63.5132   91.6741   16.5410 O.3     1  UNL1       -0.3444
     13 C          64.9508   92.1685   11.4462 C.3     1  UNL1        0.0485
     14 C          66.1712   92.3077   12.3071 C.ar    1  UNL1       -0.0172
     15 C          67.4513   91.6354   11.9078 C.ar    1  UNL1       -0.0009
     16 C          68.6718   91.7746   12.7687 C.ar    1  UNL1        0.0399
     17 C          68.6121   92.5859   14.0289 C.ar    1  UNL1        0.1764
     18 C          67.3320   93.2582   14.4282 C.ar    1  UNL1        0.1761
     19 C          66.1115   93.1191   13.5673 C.ar    1  UNL1        0.0360
     20 O          67.5738   93.9878   15.7163 O.3     1  UNL1       -0.4346
     21 C          69.0033   93.7666   16.1131 C.3     1  UNL1        0.4294
     22 O          69.6450   92.9001   15.0702 O.3     1  UNL1       -0.4346
     23 C          61.5041   90.2242   11.6772 C.3     1  UNL1        0.1001
     24 N          61.6632   88.7861   12.0728 N.3     1  UNL1       -0.2928
     25 H          60.9947   88.6113   12.8230 H       1  UNL1        0.1236
     26 C          61.4653   87.7020   11.0551 C.3     1  UNL1        0.0849
     27 C          60.6300   87.9608    9.8364 C.3     1  UNL1        0.0604
     28 C          60.4320   86.8767    8.8188 C.3     1  UNL1        0.1363
     29 C          59.6620   88.0506    8.2903 C.3     1  UNL1        0.0402
     30 C          59.2508   87.2428    7.0951 C.3     1  UNL1        0.0072
     31 C          60.0208   86.0689    7.6236 C.3     1  UNL1        0.0402
     32 O          61.0693   85.5339    9.0199 O.3     1  UNL1       -0.4676
     33 C          61.9046   85.2750   10.2386 C.ar    1  UNL1        0.2216
     34 N          62.5419   83.9321   10.4397 N.ar    1  UNL1       -0.2107
     35 C          63.3772   83.6732   11.6585 C.ar    1  UNL1        0.0977
     36 C          63.5751   84.7574   12.6761 C.ar    1  UNL1       -0.0031
     37 C          62.9378   86.1002   12.4750 C.ar    1  UNL1       -0.0011
     38 C          62.1026   86.3591   11.2562 C.ar    1  UNL1        0.0449
     39 C          64.4104   84.4985   13.8949 C.3     1  UNL1        0.0279
     40 C          63.9762   85.0306   15.2285 C.3     1  UNL1        0.0041
     41 C          65.0316   86.0934   15.1480 C.3     1  UNL1        0.0003
     42 C          62.9208   83.9677   15.3089 C.3     1  UNL1        0.0003
     43 C          63.5421   85.5627   16.5620 C.3     1  UNL1        0.0003
@<TRIPOS>BOND
     1    11    12    1
     2    12     9    1
     3     9    10    1
     4     9     5    1
     5     5     6    2
     6     5     7   am
     7     7     4    1
     8     4    13    1
     9    13    14    1
    10    14    15   ar
    11    15    16   ar
    12    16    17   ar
    13    17    18   ar
    14    18    19   ar
    15    18    20    1
    16    20    21    1
    17    21    22    1
    18     4     1    1
    19     1     2    1
    20     1    23    1
    21    23    24    1
    22    26    24    1
    23    26    27    1
    24    27    28    1
    25    28    29    1
    26    29    30    1
    27    30    31    1
    28    28    32    1
    29    32    33    1
    30    33    34   ar
    31    34    35   ar
    32    35    36   ar
    33    36    39    1
    34    39    40    1
    35    40    41    1
    36    40    42    1
    37    40    43    1
    38    36    37   ar
    39    37    38   ar
    40    19    14   ar
    41    38    26    1
    42    22    17    1
    43    31    28    1
    44    38    33   ar
    45     7     8    1
    46     2     3    1
    47    24    25    1
@<TRIPOS>MOLECULE
*****
 43 47 0 0 0
SMALL
GASTEIGER

@<TRIPOS>ATOM
      1 C          60.9173   88.3547   11.4388 C.3     1  UNL1        0.1443
      2 O          59.6970   88.4251   12.3082 O.3     1  UNL1       -0.3813
      3 H          59.4630   89.3537   12.4624 H       1  UNL1        0.2105
      4 C          61.4863   87.0220   11.0512 C.3     1  UNL1        0.1041
      5 C          61.7592   86.1727    8.6111 C.2     1  UNL1        0.2497
      6 O          63.1263   86.7870    8.5502 O.2     1  UNL1       -0.2725
      7 N          60.9392   86.2902    9.8616 N.am    1  UNL1       -0.3012
      8 H          60.0419   85.8871    9.9015 H       1  UNL1        0.1495
      9 C          61.2121   85.4410    7.4215 C.3     1  UNL1        0.1909
     10 C          62.1259   84.6201    6.5605 C.3     1  UNL1        0.0420
     11 C          58.9494   86.7108    7.5541 C.3     1  UNL1        0.1747
     12 O          59.7513   85.5300    7.0928 O.3     1  UNL1       -0.3444
     13 C          62.6023   86.4211   11.8533 C.3     1  UNL1        0.0485
     14 C          62.7486   84.9305   11.9356 C.ar    1  UNL1       -0.0172
     15 C          63.3392   84.1703   10.7853 C.ar    1  UNL1       -0.0009
     16 C          63.4856   82.6797   10.8676 C.ar    1  UNL1        0.0399
     17 C          63.0413   81.9494   12.1001 C.ar    1  UNL1        0.1764
     18 C          62.4507   82.7096   13.2505 C.ar    1  UNL1        0.1761
     19 C          62.3043   84.2002   13.1682 C.ar    1  UNL1        0.0360
     20 O          62.1046   81.7251   14.3279 O.3     1  UNL1       -0.4346
     21 C          62.4813   80.3564   13.8435 C.3     1  UNL1        0.4294
     22 O          63.0602   80.4950   12.4667 O.3     1  UNL1       -0.4346
     23 C          61.5687   89.6171   10.9569 C.3     1  UNL1        0.1001
     24 N          63.0446   89.8154   11.1368 N.3     1  UNL1       -0.2928
     25 H          63.3542   90.4249   10.3798 H       1  UNL1        0.1236
     26 C          63.5722   90.4054   12.4111 C.3     1  UNL1        0.0849
     27 C          63.1764   89.8140   13.7316 C.3     1  UNL1        0.0604
     28 C          63.7040   90.4039   15.0058 C.3     1  UNL1        0.1363
     29 C          62.8317   89.2627   15.4382 C.3     1  UNL1        0.0402
     30 C          63.1442   89.5676   16.8733 C.3     1  UNL1        0.0072
     31 C          64.0165   90.7088   16.4409 C.3     1  UNL1        0.0402
     32 O          64.6273   91.5851   14.9596 O.3     1  UNL1       -0.4676
     33 C          65.0231   92.1764   13.6391 C.ar    1  UNL1        0.2216
     34 N          65.9465   93.3576   13.5929 N.ar    1  UNL1       -0.2107
     35 C          66.3423   93.9490   12.2724 C.ar    1  UNL1        0.0977
     36 C          65.8147   93.3591   10.9981 C.ar    1  UNL1       -0.0031
     37 C          64.8913   92.1779   11.0444 C.ar    1  UNL1       -0.0011
     38 C          64.4955   91.5865   12.3649 C.ar    1  UNL1        0.0449
     39 C          66.2104   93.9504    9.6776 C.3     1  UNL1        0.0279
     40 C          66.6940   95.3686    9.6057 C.3     1  UNL1        0.0041
     41 C          68.0297   94.8885    9.1205 C.3     1  UNL1        0.0003
     42 C          65.3582   95.8486   10.0909 C.3     1  UNL1        0.0003
     43 C          67.1775   96.7866    9.5337 C.3     1  UNL1        0.0003
@<TRIPOS>BOND
     1    11    12    1
     2    12     9    1
     3     9    10    1
     4     9     5    1
     5     5     6    2
     6     5     7   am
     7     7     4    1
     8     4    13    1
     9    13    14    1
    10    14    15   ar
    11    15    16   ar
    12    16    17   ar
    13    17    18   ar
    14    18    19   ar
    15    18    20    1
    16    20    21    1
    17    21    22    1
    18     4     1    1
    19     1     2    1
    20     1    23    1
    21    23    24    1
    22    26    24    1
    23    26    27    1
    24    27    28    1
    25    28    29    1
    26    29    30    1
    27    30    31    1
    28    28    32    1
    29    32    33    1
    30    33    34   ar
    31    34    35   ar
    32    35    36   ar
    33    36    39    1
    34    39    40    1
    35    40    41    1
    36    40    42    1
    37    40    43    1
    38    36    37   ar
    39    37    38   ar
    40    19    14   ar
    41    38    26    1
    42    22    17    1
    43    31    28    1
    44    38    33   ar
    45     7     8    1
    46     2     3    1
    47    24    25    1
@<TRIPOS>MOLECULE
*****
 43 47 0 0 0
SMALL
GASTEIGER

@<TRIPOS>ATOM
      1 C          63.1448   91.3422   10.8987 C.3     1  UNL1        0.1443
      2 O          63.0422   91.5627    9.4185 O.3     1  UNL1       -0.3813
      3 H          62.2204   91.1667    9.0889 H       1  UNL1        0.2105
      4 C          64.3320   91.8619   11.6539 C.3     1  UNL1        0.1041
      5 C          66.1761   93.2951   10.5158 C.2     1  UNL1        0.2497
      6 O          66.8666   92.0442   10.0592 O.2     1  UNL1       -0.2725
      7 N          64.9089   93.2040   11.3132 N.am    1  UNL1       -0.3012
      8 H          64.4557   94.0250   11.6129 H       1  UNL1        0.1495
      9 C          66.7530   94.6372   10.1751 C.3     1  UNL1        0.1909
     10 C          67.5724   94.8072    8.9302 C.3     1  UNL1        0.0420
     11 C          65.4510   96.8144   10.7363 C.3     1  UNL1        0.1747
     12 O          66.5104   95.8092   11.0792 O.3     1  UNL1       -0.3444
     13 C          64.9424   91.0395   12.7498 C.3     1  UNL1        0.0485
     14 C          65.7762   91.6998   13.8075 C.ar    1  UNL1       -0.0172
     15 C          65.1733   92.0288   15.1410 C.ar    1  UNL1       -0.0009
     16 C          66.0071   92.6892   16.1987 C.ar    1  UNL1        0.0399
     17 C          67.4437   93.0206   15.9229 C.ar    1  UNL1        0.1764
     18 C          68.0467   92.6916   14.5894 C.ar    1  UNL1        0.1761
     19 C          67.2130   92.0312   13.5317 C.ar    1  UNL1        0.0360
     20 O          69.4797   93.1345   14.6067 O.3     1  UNL1       -0.4346
     21 C          69.7624   93.7372   15.9508 C.3     1  UNL1        0.4294
     22 O          68.5041   93.6668   16.7643 O.3     1  UNL1       -0.4346
     23 C          62.0600   90.6021   11.6237 C.3     1  UNL1        0.1001
     24 N          62.2491   89.1585   11.9845 N.3     1  UNL1       -0.2928
     25 H          61.7596   89.0090   12.8669 H       1  UNL1        0.1236
     26 C          61.7868   88.0839   11.0455 C.3     1  UNL1        0.0849
     27 C          60.9406   88.4381    9.8587 C.3     1  UNL1        0.0604
     28 C          60.4783   87.3636    8.9197 C.3     1  UNL1        0.1363
     29 C          59.9118   88.6360    8.3627 C.3     1  UNL1        0.0402
     30 C          59.2815   87.8645    7.2413 C.3     1  UNL1        0.0072
     31 C          59.8480   86.5921    7.7983 C.3     1  UNL1        0.0402
     32 O          60.8623   85.9350    9.1675 O.3     1  UNL1       -0.4676
     33 C          61.7086   85.5808   10.3542 C.ar    1  UNL1        0.2216
     34 N          62.0926   84.1520   10.6020 N.ar    1  UNL1       -0.2107
     35 C          62.9389   83.7978   11.7887 C.ar    1  UNL1        0.0977
     36 C          63.4011   84.8724   12.7278 C.ar    1  UNL1       -0.0031
     37 C          63.0171   86.3011   12.4800 C.ar    1  UNL1       -0.0011
     38 C          62.1708   86.6552   11.2933 C.ar    1  UNL1        0.0449
     39 C          64.2474   84.5182   13.9145 C.3     1  UNL1        0.0279
     40 C          63.9460   85.1176   15.2562 C.3     1  UNL1        0.0041
     41 C          65.0680   86.0958   15.0711 C.3     1  UNL1        0.0003
     42 C          62.8241   84.1393   15.4413 C.3     1  UNL1        0.0003
     43 C          63.6448   85.7170   16.5978 C.3     1  UNL1        0.0003
@<TRIPOS>BOND
     1    11    12    1
     2    12     9    1
     3     9    10    1
     4     9     5    1
     5     5     6    2
     6     5     7   am
     7     7     4    1
     8     4    13    1
     9    13    14    1
    10    14    15   ar
    11    15    16   ar
    12    16    17   ar
    13    17    18   ar
    14    18    19   ar
    15    18    20    1
    16    20    21    1
    17    21    22    1
    18     4     1    1
    19     1     2    1
    20     1    23    1
    21    23    24    1
    22    26    24    1
    23    26    27    1
    24    27    28    1
    25    28    29    1
    26    29    30    1
    27    30    31    1
    28    28    32    1
    29    32    33    1
    30    33    34   ar
    31    34    35   ar
    32    35    36   ar
    33    36    39    1
    34    39    40    1
    35    40    41    1
    36    40    42    1
    37    40    43    1
    38    36    37   ar
    39    37    38   ar
    40    19    14   ar
    41    38    26    1
    42    22    17    1
    43    31    28    1
    44    38    33   ar
    45     7     8    1
    46     2     3    1
    47    24    25    1
@<TRIPOS>MOLECULE
*****
 43 47 0 0 0
SMALL
GASTEIGER

@<TRIPOS>ATOM
      1 C          63.6470   91.0787   11.6551 C.3     1  UNL1        0.1443
      2 O          63.7566   90.9075   10.1690 O.3     1  UNL1       -0.3813
      3 H          62.9451   90.4983    9.8300 H       1  UNL1        0.2105
      4 C          64.7784   91.6932   12.4247 C.3     1  UNL1        0.1041
      5 C          66.1871   93.4039   11.0687 C.2     1  UNL1        0.2497
      6 O          66.7717   92.2828   10.2615 O.2     1  UNL1       -0.2725
      7 N          65.1905   93.1091   12.1502 N.am    1  UNL1       -0.3012
      8 H          64.8069   93.8449   12.6799 H       1  UNL1        0.1495
      9 C          66.5992   94.8198   10.7942 C.3     1  UNL1        0.1909
     10 C          65.8890   95.9528   11.4739 C.3     1  UNL1        0.0420
     11 C          67.4260   95.6574    8.4780 C.3     1  UNL1        0.1747
     12 O          67.7214   95.1028    9.8400 O.3     1  UNL1       -0.3444
     13 C          65.4978   90.8917   13.4688 C.3     1  UNL1        0.0485
     14 C          64.7189   90.1634   14.5238 C.ar    1  UNL1       -0.0172
     15 C          64.0215   90.9325   15.6063 C.ar    1  UNL1       -0.0009
     16 C          63.2427   90.2042   16.6613 C.ar    1  UNL1        0.0399
     17 C          63.1613   88.7067   16.6337 C.ar    1  UNL1        0.1764
     18 C          63.8587   87.9374   15.5511 C.ar    1  UNL1        0.1761
     19 C          64.6376   88.6658   14.4962 C.ar    1  UNL1        0.0360
     20 O          63.6019   86.4775   15.7807 O.3     1  UNL1       -0.4346
     21 C          62.7458   86.3445   17.0052 C.3     1  UNL1        0.4294
     22 O          62.4734   87.7221   17.5323 O.3     1  UNL1       -0.4346
     23 C          62.4060   90.6354   12.3717 C.3     1  UNL1        0.1001
     24 N          62.0815   89.1747   12.4760 N.3     1  UNL1       -0.2928
     25 H          61.3147   89.0903   13.1433 H       1  UNL1        0.1236
     26 C          61.6771   88.4070   11.2524 C.3     1  UNL1        0.0849
     27 C          60.9063   89.0879   10.1605 C.3     1  UNL1        0.0604
     28 C          60.5019   88.3203    8.9369 C.3     1  UNL1        0.1363
     29 C          59.9724   89.7066    8.7181 C.3     1  UNL1        0.0402
     30 C          59.4118   89.2833    7.3927 C.3     1  UNL1        0.0072
     31 C          59.9414   87.8970    7.6115 C.3     1  UNL1        0.0402
     32 O          60.8683   86.8717    8.8052 O.3     1  UNL1       -0.4676
     33 C          61.6391   86.1908    9.8971 C.ar    1  UNL1        0.2216
     34 N          62.0055   84.7422    9.7654 N.ar    1  UNL1       -0.2107
     35 C          62.7763   84.0612   10.8573 C.ar    1  UNL1        0.0977
     36 C          63.1807   84.8289   12.0809 C.ar    1  UNL1       -0.0031
     37 C          62.8143   86.2775   12.2126 C.ar    1  UNL1       -0.0011
     38 C          62.0435   86.9584   11.1207 C.ar    1  UNL1        0.0449
     39 C          63.9514   84.1480   13.1728 C.3     1  UNL1        0.0279
     40 C          63.5862   82.7548   13.5921 C.3     1  UNL1        0.0041
     41 C          62.5788   83.3089   14.5554 C.3     1  UNL1        0.0003
     42 C          64.5937   82.2007   12.6286 C.3     1  UNL1        0.0003
     43 C          63.2210   81.3617   14.0114 C.3     1  UNL1        0.0003
@<TRIPOS>BOND
     1    11    12    1
     2    12     9    1
     3     9    10    1
     4     9     5    1
     5     5     6    2
     6     5     7   am
     7     7     4    1
     8     4    13    1
     9    13    14    1
    10    14    15   ar
    11    15    16   ar
    12    16    17   ar
    13    17    18   ar
    14    18    19   ar
    15    18    20    1
    16    20    21    1
    17    21    22    1
    18     4     1    1
    19     1     2    1
    20     1    23    1
    21    23    24    1
    22    26    24    1
    23    26    27    1
    24    27    28    1
    25    28    29    1
    26    29    30    1
    27    30    31    1
    28    28    32    1
    29    32    33    1
    30    33    34   ar
    31    34    35   ar
    32    35    36   ar
    33    36    39    1
    34    39    40    1
    35    40    41    1
    36    40    42    1
    37    40    43    1
    38    36    37   ar
    39    37    38   ar
    40    19    14   ar
    41    38    26    1
    42    22    17    1
    43    31    28    1
    44    38    33   ar
    45     7     8    1
    46     2     3    1
    47    24    25    1
@<TRIPOS>MOLECULE
*****
 43 47 0 0 0
SMALL
GASTEIGER

@<TRIPOS>ATOM
      1 C          63.8120   83.3502   10.7438 C.3     1  UNL1        0.1443
      2 O          64.8054   82.6757    9.8448 O.3     1  UNL1       -0.3813
      3 H          64.8117   83.1171    8.9811 H       1  UNL1        0.2105
      4 C          63.6106   82.8540   12.1449 C.3     1  UNL1        0.1041
      5 C          62.4940   80.9722   13.5456 C.2     1  UNL1        0.2497
      6 O          63.7861   80.7474   14.2737 O.2     1  UNL1       -0.2725
      7 N          62.4063   82.0254   12.4812 N.am    1  UNL1       -0.3012
      8 H          61.5582   82.1729   12.0034 H       1  UNL1        0.1495
      9 C          61.2897   80.1436   13.8819 C.3     1  UNL1        0.1909
     10 C          61.3802   78.6464   13.8626 C.3     1  UNL1        0.0420
     11 C          58.7687   79.9859   14.4899 C.3     1  UNL1        0.1747
     12 O          59.9949   80.8122   14.2376 O.3     1  UNL1       -0.3444
     13 C          64.6134   83.1864   13.2097 C.3     1  UNL1        0.0485
     14 C          64.3271   84.2813   14.1942 C.ar    1  UNL1       -0.0172
     15 C          65.2794   85.4316   14.3345 C.ar    1  UNL1       -0.0009
     16 C          64.9931   86.5265   15.3190 C.ar    1  UNL1        0.0399
     17 C          63.7545   86.4711   16.1631 C.ar    1  UNL1        0.1764
     18 C          62.8020   85.3207   16.0228 C.ar    1  UNL1        0.1761
     19 C          63.0884   84.2258   15.0383 C.ar    1  UNL1        0.0360
     20 O          61.6704   85.5360   16.9835 O.3     1  UNL1       -0.4346
     21 C          61.9233   86.8193   17.7176 C.3     1  UNL1        0.4294
     22 O          63.2114   87.3973   17.2106 O.3     1  UNL1       -0.4346
     23 C          63.0201   84.5210   10.2416 C.3     1  UNL1        0.1001
     24 N          62.5976   85.6031   11.1906 N.3     1  UNL1       -0.2928
     25 H          63.4247   85.8632   11.7277 H       1  UNL1        0.1236
     26 C          62.0069   86.8764   10.6612 C.3     1  UNL1        0.0849
     27 C          61.0508   86.8362    9.5062 C.3     1  UNL1        0.0604
     28 C          60.4602   88.1094    8.9769 C.3     1  UNL1        0.1363
     29 C          59.8759   87.0250    8.1207 C.3     1  UNL1        0.0402
     30 C          59.1079   88.0526    7.3433 C.3     1  UNL1        0.0072
     31 C          59.6921   89.1370    8.1995 C.3     1  UNL1        0.0402
     32 O          60.8257   89.4227    9.6026 O.3     1  UNL1       -0.4676
     33 C          61.7819   89.4628   10.7576 C.ar    1  UNL1        0.2216
     34 N          62.1474   90.7762   11.3834 N.ar    1  UNL1       -0.2107
     35 C          63.1036   90.8163   12.5384 C.ar    1  UNL1        0.0977
     36 C          63.6942   89.5431   13.0677 C.ar    1  UNL1       -0.0031
     37 C          63.3287   88.2298   12.4420 C.ar    1  UNL1       -0.0011
     38 C          62.3725   88.1897   11.2870 C.ar    1  UNL1        0.0449
     39 C          64.6504   89.5833   14.2228 C.3     1  UNL1        0.0279
     40 C          64.7718   90.8267   15.0531 C.3     1  UNL1        0.0041
     41 C          65.9611   91.2510   14.2435 C.3     1  UNL1        0.0003
     42 C          63.5824   90.4023   15.8626 C.3     1  UNL1        0.0003
     43 C          64.8932   92.0700   15.8832 C.3     1  UNL1        0.0003
@<TRIPOS>BOND
     1    11    12    1
     2    12     9    1
     3     9    10    1
     4     9     5    1
     5     5     6    2
     6     5     7   am
     7     7     4    1
     8     4    13    1
     9    13    14    1
    10    14    15   ar
    11    15    16   ar
    12    16    17   ar
    13    17    18   ar
    14    18    19   ar
    15    18    20    1
    16    20    21    1
    17    21    22    1
    18     4     1    1
    19     1     2    1
    20     1    23    1
    21    23    24    1
    22    26    24    1
    23    26    27    1
    24    27    28    1
    25    28    29    1
    26    29    30    1
    27    30    31    1
    28    28    32    1
    29    32    33    1
    30    33    34   ar
    31    34    35   ar
    32    35    36   ar
    33    36    39    1
    34    39    40    1
    35    40    41    1
    36    40    42    1
    37    40    43    1
    38    36    37   ar
    39    37    38   ar
    40    19    14   ar
    41    38    26    1
    42    22    17    1
    43    31    28    1
    44    38    33   ar
    45     7     8    1
    46     2     3    1
    47    24    25    1
@<TRIPOS>MOLECULE
*****
 43 47 0 0 0
SMALL
GASTEIGER

@<TRIPOS>ATOM
      1 C          64.2041   90.3744   13.6569 C.3     1  UNL1        0.1443
      2 O          63.8843   90.3834   15.1223 O.3     1  UNL1       -0.3813
      3 H          63.3308   89.6163   15.3372 H       1  UNL1        0.2105
      4 C          65.0522   91.4622   13.0676 C.3     1  UNL1        0.1041
      5 C          66.5361   92.4055   14.9802 C.2     1  UNL1        0.2497
      6 O          65.3049   92.7791   15.7513 O.2     1  UNL1       -0.2725
      7 N          66.4098   91.7471   13.6384 N.am    1  UNL1       -0.3012
      8 H          67.2179   91.5020   13.1323 H       1  UNL1        0.1495
      9 C          67.8937   92.6905   15.5510 C.3     1  UNL1        0.1909
     10 C          68.4823   91.7719   16.5805 C.3     1  UNL1        0.0420
     11 C          69.3265   94.7877   16.0975 C.3     1  UNL1        0.1747
     12 O          68.6627   93.8939   15.0923 O.3     1  UNL1       -0.3444
     13 C          64.5428   92.2651   11.9075 C.3     1  UNL1        0.0485
     14 C          65.5040   93.0212   11.0389 C.ar    1  UNL1       -0.0172
     15 C          66.6812   92.3164   10.4330 C.ar    1  UNL1       -0.0009
     16 C          67.6424   93.0725    9.5644 C.ar    1  UNL1        0.0399
     17 C          67.4263   94.5334    9.3018 C.ar    1  UNL1        0.1764
     18 C          66.2490   95.2382    9.9077 C.ar    1  UNL1        0.1761
     19 C          65.2878   94.4821   10.7763 C.ar    1  UNL1        0.0360
     20 O          66.2942   96.6734    9.4738 O.3     1  UNL1       -0.4346
     21 C          67.4995   96.8555    8.5997 C.3     1  UNL1        0.4294
     22 O          68.1992   95.5329    8.4934 O.3     1  UNL1       -0.4346
     23 C          63.6758   89.2774   12.7807 C.3     1  UNL1        0.1001
     24 N          62.2702   89.3437   12.2612 N.3     1  UNL1       -0.2928
     25 H          62.1498   90.2716   11.8551 H       1  UNL1        0.1236
     26 C          61.8034   88.3568   11.2325 C.3     1  UNL1        0.0849
     27 C          60.9971   88.8236   10.0569 C.3     1  UNL1        0.0604
     28 C          60.5304   87.8368    9.0282 C.3     1  UNL1        0.1363
     29 C          60.0121   89.1633    8.5570 C.3     1  UNL1        0.0402
     30 C          59.3900   88.4970    7.3657 C.3     1  UNL1        0.0072
     31 C          59.9083   87.1706    7.8369 C.3     1  UNL1        0.0402
     32 O          60.8699   86.3832    9.1751 O.3     1  UNL1       -0.4676
     33 C          61.6762   85.9164   10.3506 C.ar    1  UNL1        0.2216
     34 N          62.0158   84.4626   10.4974 N.ar    1  UNL1       -0.2107
     35 C          62.8221   83.9958   11.6730 C.ar    1  UNL1        0.0977
     36 C          63.2889   84.9827   12.7017 C.ar    1  UNL1       -0.0031
     37 C          62.9493   86.4363   12.5549 C.ar    1  UNL1       -0.0011
     38 C          62.1430   86.9032   11.3793 C.ar    1  UNL1        0.0449
     39 C          64.0952   84.5159   13.8773 C.3     1  UNL1        0.0279
     40 C          63.8461   85.0991   15.2367 C.3     1  UNL1        0.0041
     41 C          65.0086   86.0286   15.0508 C.3     1  UNL1        0.0003
     42 C          62.6836   84.1695   15.4225 C.3     1  UNL1        0.0003
     43 C          63.5972   85.6823   16.5960 C.3     1  UNL1        0.0003
@<TRIPOS>BOND
     1    11    12    1
     2    12     9    1
     3     9    10    1
     4     9     5    1
     5     5     6    2
     6     5     7   am
     7     7     4    1
     8     4    13    1
     9    13    14    1
    10    14    15   ar
    11    15    16   ar
    12    16    17   ar
    13    17    18   ar
    14    18    19   ar
    15    18    20    1
    16    20    21    1
    17    21    22    1
    18     4     1    1
    19     1     2    1
    20     1    23    1
    21    23    24    1
    22    26    24    1
    23    26    27    1
    24    27    28    1
    25    28    29    1
    26    29    30    1
    27    30    31    1
    28    28    32    1
    29    32    33    1
    30    33    34   ar
    31    34    35   ar
    32    35    36   ar
    33    36    39    1
    34    39    40    1
    35    40    41    1
    36    40    42    1
    37    40    43    1
    38    36    37   ar
    39    37    38   ar
    40    19    14   ar
    41    38    26    1
    42    22    17    1
    43    31    28    1
    44    38    33   ar
    45     7     8    1
    46     2     3    1
    47    24    25    1
@<TRIPOS>MOLECULE
*****
 43 47 0 0 0
SMALL
GASTEIGER

@<TRIPOS>ATOM
      1 C          61.9745   88.3851   11.3328 C.3     1  UNL1        0.1443
      2 O          60.8108   88.9487   12.0933 O.3     1  UNL1       -0.3813
      3 H          60.8803   89.9158   12.1206 H       1  UNL1        0.2105
      4 C          62.1014   86.9022   11.1466 C.3     1  UNL1        0.1041
      5 C          61.9825   86.0965    8.6795 C.2     1  UNL1        0.2497
      6 O          63.3515   86.6569    8.4305 O.2     1  UNL1       -0.2725
      7 N          61.3575   86.2192   10.0375 N.am    1  UNL1       -0.3012
      8 H          60.4590   85.8514   10.2008 H       1  UNL1        0.1495
      9 C          61.2386   85.4135    7.5703 C.3     1  UNL1        0.1909
     10 C          61.9811   84.5668    6.5794 C.3     1  UNL1        0.0420
     11 C          59.1359   86.9394    7.5726 C.3     1  UNL1        0.1747
     12 O          59.7523   85.5773    7.4521 O.3     1  UNL1       -0.3444
     13 C          62.9722   86.1022   12.0695 C.3     1  UNL1        0.0485
     14 C          62.9471   84.6035   12.0130 C.ar    1  UNL1       -0.0172
     15 C          63.4632   83.8900   10.7987 C.ar    1  UNL1       -0.0009
     16 C          63.4381   82.3912   10.7422 C.ar    1  UNL1        0.0399
     17 C          62.8971   81.6060   11.9000 C.ar    1  UNL1        0.1764
     18 C          62.3810   82.3195   13.1144 C.ar    1  UNL1        0.1761
     19 C          62.4060   83.8182   13.1709 C.ar    1  UNL1        0.0360
     20 O          61.9107   81.2859   14.0944 O.3     1  UNL1       -0.4346
     21 C          62.1361   79.9336   13.4858 C.3     1  UNL1        0.4294
     22 O          62.7457   80.1314   12.1296 O.3     1  UNL1       -0.4346
     23 C          63.0113   89.3046   10.7586 C.3     1  UNL1        0.1001
     24 N          62.8295   90.7906   10.8505 N.3     1  UNL1       -0.2928
     25 H          61.9871   90.9506   11.4031 H       1  UNL1        0.1236
     26 C          63.9088   91.6427   11.4499 C.3     1  UNL1        0.0849
     27 C          64.6339   92.6429   10.5991 C.3     1  UNL1        0.0604
     28 C          65.7132   93.4950   11.1984 C.3     1  UNL1        0.1363
     29 C          65.6407   93.9148    9.7601 C.3     1  UNL1        0.0402
     30 C          66.7387   94.9095    9.9951 C.3     1  UNL1        0.0072
     31 C          66.8112   94.4896   11.4334 C.3     1  UNL1        0.0402
     32 O          66.0673   93.3468   12.6484 O.3     1  UNL1       -0.4676
     33 C          65.3422   92.3466   13.4991 C.ar    1  UNL1        0.2216
     34 N          65.6964   92.1985   14.9492 N.ar    1  UNL1       -0.2107
     35 C          64.9713   91.1983   15.8000 C.ar    1  UNL1        0.0977
     36 C          63.8919   90.3462   15.2007 C.ar    1  UNL1       -0.0031
     37 C          63.5378   90.4944   13.7506 C.ar    1  UNL1       -0.0011
     38 C          64.2629   91.4946   12.8999 C.ar    1  UNL1        0.0449
     39 C          63.1668   89.3460   16.0514 C.3     1  UNL1        0.0279
     40 C          63.5524   87.8973   15.9992 C.3     1  UNL1        0.0041
     41 C          64.2735   88.1359   14.7058 C.3     1  UNL1        0.0003
     42 C          62.8312   87.6587   17.2927 C.3     1  UNL1        0.0003
     43 C          63.9380   86.4487   15.9470 C.3     1  UNL1        0.0003
@<TRIPOS>BOND
     1    11    12    1
     2    12     9    1
     3     9    10    1
     4     9     5    1
     5     5     6    2
     6     5     7   am
     7     7     4    1
     8     4    13    1
     9    13    14    1
    10    14    15   ar
    11    15    16   ar
    12    16    17   ar
    13    17    18   ar
    14    18    19   ar
    15    18    20    1
    16    20    21    1
    17    21    22    1
    18     4     1    1
    19     1     2    1
    20     1    23    1
    21    23    24    1
    22    26    24    1
    23    26    27    1
    24    27    28    1
    25    28    29    1
    26    29    30    1
    27    30    31    1
    28    28    32    1
    29    32    33    1
    30    33    34   ar
    31    34    35   ar
    32    35    36   ar
    33    36    39    1
    34    39    40    1
    35    40    41    1
    36    40    42    1
    37    40    43    1
    38    36    37   ar
    39    37    38   ar
    40    19    14   ar
    41    38    26    1
    42    22    17    1
    43    31    28    1
    44    38    33   ar
    45     7     8    1
    46     2     3    1
    47    24    25    1
@<TRIPOS>MOLECULE
*****
 43 47 0 0 0
SMALL
GASTEIGER

@<TRIPOS>ATOM
      1 C          62.3367   89.5252   11.9154 C.3     1  UNL1        0.1443
      2 O          61.8980   90.2203   13.1702 O.3     1  UNL1       -0.3813
      3 H          61.8964   89.5885   13.9061 H       1  UNL1        0.2105
      4 C          62.4240   90.2879   10.6268 C.3     1  UNL1        0.1041
      5 C          60.3488   89.5475    9.2501 C.2     1  UNL1        0.2497
      6 O          59.4524   89.9579   10.3807 O.2     1  UNL1       -0.2725
      7 N          61.8346   89.7125    9.3732 N.am    1  UNL1       -0.3012
      8 H          62.4229   89.4432    8.6312 H       1  UNL1        0.1495
      9 C          59.7594   88.9721    7.9966 C.3     1  UNL1        0.1909
     10 C          58.9491   87.7112    8.0589 C.3     1  UNL1        0.0420
     11 C          58.8168   90.2398    5.9339 C.3     1  UNL1        0.1747
     12 O          59.9801   89.6574    6.6807 O.3     1  UNL1       -0.3444
     13 C          63.1007   91.6261   10.5918 C.3     1  UNL1        0.0485
     14 C          64.3963   91.8307   11.3195 C.ar    1  UNL1       -0.0172
     15 C          65.5872   92.3792   10.5910 C.ar    1  UNL1       -0.0009
     16 C          66.8828   92.5837   11.3187 C.ar    1  UNL1        0.0399
     17 C          66.9875   92.2397   12.7750 C.ar    1  UNL1        0.1764
     18 C          65.7966   91.6911   13.5035 C.ar    1  UNL1        0.1761
     19 C          64.5010   91.4866   12.7758 C.ar    1  UNL1        0.0360
     20 O          66.1974   91.4450   14.9279 O.3     1  UNL1       -0.4346
     21 C          67.6361   91.8415   15.0796 C.3     1  UNL1        0.4294
     22 O          68.1244   92.3326   13.7491 O.3     1  UNL1       -0.4346
     23 C          62.6880   88.0673   11.9493 C.3     1  UNL1        0.1001
     24 N          61.7381   87.0535   11.3838 N.3     1  UNL1       -0.2928
     25 H          61.0435   87.5698   10.8441 H       1  UNL1        0.1236
     26 C          62.2507   85.9590   10.4954 C.3     1  UNL1        0.0849
     27 C          61.9389   85.9759    9.0283 C.3     1  UNL1        0.0604
     28 C          62.4515   84.8815    8.1398 C.3     1  UNL1        0.1363
     29 C          61.6851   85.7941    7.2288 C.3     1  UNL1        0.0402
     30 C          62.0105   84.9055    6.0649 C.3     1  UNL1        0.0072
     31 C          62.7768   83.9928    6.9759 C.3     1  UNL1        0.0402
     32 O          63.2759   83.7700    8.7186 O.3     1  UNL1       -0.4676
     33 C          63.5877   83.7530   10.1857 C.ar    1  UNL1        0.2216
     34 N          64.4122   82.6415   10.7644 N.ar    1  UNL1       -0.2107
     35 C          64.7240   82.6245   12.2315 C.ar    1  UNL1        0.0977
     36 C          64.2114   83.7191   13.1200 C.ar    1  UNL1       -0.0031
     37 C          63.3870   84.8305   12.5412 C.ar    1  UNL1       -0.0011
     38 C          63.0751   84.8475   11.0741 C.ar    1  UNL1        0.0449
     39 C          64.5232   83.7021   14.5871 C.3     1  UNL1        0.0279
     40 C          63.9991   84.7893   15.4779 C.3     1  UNL1        0.0041
     41 C          65.1830   85.6431   15.1324 C.3     1  UNL1        0.0003
     42 C          62.8152   83.9354   15.8234 C.3     1  UNL1        0.0003
     43 C          63.4750   85.8764   16.3686 C.3     1  UNL1        0.0003
@<TRIPOS>BOND
     1    11    12    1
     2    12     9    1
     3     9    10    1
     4     9     5    1
     5     5     6    2
     6     5     7   am
     7     7     4    1
     8     4    13    1
     9    13    14    1
    10    14    15   ar
    11    15    16   ar
    12    16    17   ar
    13    17    18   ar
    14    18    19   ar
    15    18    20    1
    16    20    21    1
    17    21    22    1
    18     4     1    1
    19     1     2    1
    20     1    23    1
    21    23    24    1
    22    26    24    1
    23    26    27    1
    24    27    28    1
    25    28    29    1
    26    29    30    1
    27    30    31    1
    28    28    32    1
    29    32    33    1
    30    33    34   ar
    31    34    35   ar
    32    35    36   ar
    33    36    39    1
    34    39    40    1
    35    40    41    1
    36    40    42    1
    37    40    43    1
    38    36    37   ar
    39    37    38   ar
    40    19    14   ar
    41    38    26    1
    42    22    17    1
    43    31    28    1
    44    38    33   ar
    45     7     8    1
    46     2     3    1
    47    24    25    1
