@<TRIPOS>MOLECULE
*****
 30 33 0 0 0
SMALL
GASTEIGER

@<TRIPOS>ATOM
      1 C          63.7412   89.1322   15.7940 C.ar    1  UNL1        0.0016
      2 C          64.4206   88.3583   14.7034 C.ar    1  UNL1        0.0005
      3 C          64.4291   86.8588   14.7413 C.ar    1  UNL1        0.0338
      4 C          63.7583   86.1332   15.8697 C.ar    1  UNL1        0.1287
      5 N          63.0788   86.9072   16.9604 N.ar    1  UNL1       -0.2297
      6 C          63.0703   88.4067   16.9225 C.ar    1  UNL1        0.0963
      7 N          63.7668   84.6337   15.9076 N.pl3   1  UNL1       -0.3144
      8 H          64.5591   84.1542   16.2416 H       1  UNL1        0.1485
      9 C          62.5681   83.8647   15.4365 C.3     1  UNL1        0.1169
     10 C          62.6725   82.9769   14.2321 C.ar    1  UNL1        0.0166
     11 C          62.2768   81.5332   14.3279 C.ar    1  UNL1        0.0004
     12 C          62.3812   80.6454   13.1234 C.ar    1  UNL1        0.0228
     13 C          62.8814   81.2012   11.8230 C.ar    1  UNL1        0.1526
     14 N          63.2771   82.6449   11.7272 N.ar    1  UNL1       -0.2401
     15 C          63.1727   83.5327   12.9317 C.ar    1  UNL1        0.0961
     16 C          62.9857   80.3133   10.6185 C.3     1  UNL1        0.4348
     17 F          63.0901   79.4254    9.4140 F       1  UNL1       -0.1644
     18 F          62.5664   79.1369   11.4493 F       1  UNL1       -0.1644
     19 F          63.4051   81.4898    9.7877 F       1  UNL1       -0.1644
     20 C          63.7326   90.6317   15.7561 C.3     1  UNL1        0.0580
     21 C          63.0060   91.2084    9.9311 C.3     1  UNL1        0.0307
     22 C          63.9938   91.5986   10.9903 C.2     1  UNL1        0.0074
     23 C          65.2236   92.3736   10.6201 C.2     1  UNL1        0.2278
     24 N          66.2114   92.7638   11.6793 N.2     1  UNL1       -0.0314
     25 C          65.9694   92.3791   13.1087 C.2     1  UNL1        0.3716
     26 N          66.7590   92.6216   14.3609 N.2     1  UNL1       -0.0311
     27 C          66.0172   91.9966   15.5050 C.2     1  UNL1        0.2319
     28 C          64.7692   91.3677   14.9600 C.2     1  UNL1        0.0328
     29 C          64.7397   91.6042   13.4790 C.2     1  UNL1        0.0704
     30 C          63.7519   91.2140   12.4198 C.3     1  UNL1        0.0598
@<TRIPOS>BOND
     1    21    22    1
     2    22    23    2
     3    23    24    1
     4    24    25    2
     5    25    26    1
     6    26    27    2
     7    27    28    1
     8    28    20    1
     9    20     1    1
    10     1     2   ar
    11     2     3   ar
    12     3     4   ar
    13     4     7    1
    14     7     9    1
    15     9    10    1
    16    10    11   ar
    17    11    12   ar
    18    12    13   ar
    19    13    16    1
    20    16    17    1
    21    16    18    1
    22    16    19    1
    23    13    14   ar
    24    14    15   ar
    25     4     5   ar
    26     5     6   ar
    27    28    29    2
    28    29    30    1
    29    30    22    1
    30    29    25    1
    31     6     1   ar
    32    15    10   ar
    33     7     8    1
@<TRIPOS>MOLECULE
*****
 30 33 0 0 0
SMALL
GASTEIGER

@<TRIPOS>ATOM
      1 C          63.0381   84.6952    9.5920 C.ar    1  UNL1        0.0016
      2 C          62.3028   84.7836   10.8964 C.ar    1  UNL1        0.0005
      3 C          62.6856   83.8859   12.0355 C.ar    1  UNL1        0.0338
      4 C          63.8038   82.8999   11.8703 C.ar    1  UNL1        0.1287
      5 N          64.5392   82.8115   10.5659 N.ar    1  UNL1       -0.2297
      6 C          64.1564   83.7092    9.4267 C.ar    1  UNL1        0.0963
      7 N          64.1866   82.0022   13.0095 N.pl3   1  UNL1       -0.3144
      8 H          64.8714   81.3070   12.8797 H       1  UNL1        0.1485
      9 C          63.5259   82.1639   14.3464 C.3     1  UNL1        0.1169
     10 C          63.4642   83.5155   14.9939 C.ar    1  UNL1        0.0166
     11 C          64.6136   84.4687   14.8513 C.ar    1  UNL1        0.0004
     12 C          64.5519   85.8203   15.4988 C.ar    1  UNL1        0.0228
     13 C          63.3408   86.2189   16.2890 C.ar    1  UNL1        0.1526
     14 N          62.1914   85.2656   16.4316 N.ar    1  UNL1       -0.2401
     15 C          62.2531   83.9141   15.7841 C.ar    1  UNL1        0.0961
     16 C          63.2791   87.5705   16.9365 C.3     1  UNL1        0.4348
     17 F          63.2174   88.9221   17.5840 F       1  UNL1       -0.1644
     18 F          63.8518   88.1906   15.6966 F       1  UNL1       -0.1644
     19 F          62.7064   86.9503   18.1765 F       1  UNL1       -0.1644
     20 C          62.6553   85.5929    8.4528 C.3     1  UNL1        0.0580
     21 C          63.2834   90.4780   11.6983 C.3     1  UNL1        0.0307
     22 C          62.2288   89.7928   10.8807 C.2     1  UNL1        0.0074
     23 C          60.8665   90.4063   10.7479 C.2     1  UNL1        0.2278
     24 N          59.8119   89.7212    9.9303 N.2     1  UNL1       -0.0314
     25 C          60.1196   88.4226    9.2456 C.2     1  UNL1        0.3716
     26 N          59.2886   87.5229    8.3797 N.2     1  UNL1       -0.0311
     27 C          60.1373   86.3533    7.9773 C.2     1  UNL1        0.2319
     28 C          61.4929   86.5302    8.5945 C.2     1  UNL1        0.0328
     29 C          61.4820   87.8091    9.3784 C.2     1  UNL1        0.0704
     30 C          62.5366   88.4943   10.1960 C.3     1  UNL1        0.0598
@<TRIPOS>BOND
     1    21    22    1
     2    22    23    2
     3    23    24    1
     4    24    25    2
     5    25    26    1
     6    26    27    2
     7    27    28    1
     8    28    20    1
     9    20     1    1
    10     1     2   ar
    11     2     3   ar
    12     3     4   ar
    13     4     7    1
    14     7     9    1
    15     9    10    1
    16    10    11   ar
    17    11    12   ar
    18    12    13   ar
    19    13    16    1
    20    16    17    1
    21    16    18    1
    22    16    19    1
    23    13    14   ar
    24    14    15   ar
    25     4     5   ar
    26     5     6   ar
    27    28    29    2
    28    29    30    1
    29    30    22    1
    30    29    25    1
    31     6     1   ar
    32    15    10   ar
    33     7     8    1
@<TRIPOS>MOLECULE
*****
 30 33 0 0 0
SMALL
GASTEIGER

@<TRIPOS>ATOM
      1 C          63.6524   88.6988   15.8862 C.ar    1  UNL1        0.0016
      2 C          64.4896   88.0717   14.8112 C.ar    1  UNL1        0.0005
      3 C          64.6526   86.5815   14.7609 C.ar    1  UNL1        0.0338
      4 C          63.9784   85.7182   15.7857 C.ar    1  UNL1        0.1287
      5 N          63.1411   86.3454   16.8608 N.ar    1  UNL1       -0.2297
      6 C          62.9780   87.8356   16.9111 C.ar    1  UNL1        0.0963
      7 N          64.1414   84.2280   15.7354 N.pl3   1  UNL1       -0.3144
      8 H          64.7866   83.7830   16.3311 H       1  UNL1        0.1485
      9 C          63.3213   83.4157   14.7773 C.3     1  UNL1        0.1169
     10 C          63.2479   83.8098   13.3319 C.ar    1  UNL1        0.0166
     11 C          62.3000   84.8873   12.8955 C.ar    1  UNL1        0.0004
     12 C          62.2265   85.2814   11.4501 C.ar    1  UNL1        0.0228
     13 C          63.1009   84.5979   10.4409 C.ar    1  UNL1        0.1526
     14 N          64.0489   83.5204   10.8774 N.ar    1  UNL1       -0.2401
     15 C          64.1223   83.1264   12.3228 C.ar    1  UNL1        0.0961
     16 C          63.0274   84.9920    8.9955 C.3     1  UNL1        0.4348
     17 F          62.9539   85.3861    7.5501 F       1  UNL1       -0.1644
     18 F          63.6622   83.6893    8.6081 F       1  UNL1       -0.1644
     19 F          62.3926   86.2947    9.3830 F       1  UNL1       -0.1644
     20 C          63.4894   90.1891   15.9366 C.3     1  UNL1        0.0580
     21 C          62.3454   90.2775   10.1508 C.3     1  UNL1        0.0307
     22 C          63.2938   90.9119   11.1245 C.2     1  UNL1        0.0074
     23 C          64.3250   91.8874   10.6400 C.2     1  UNL1        0.2278
     24 N          65.2734   92.5217   11.6137 N.2     1  UNL1       -0.0314
     25 C          65.1905   92.1806   13.0720 C.2     1  UNL1        0.3716
     26 N          65.9844   92.6430   14.2577 N.2     1  UNL1       -0.0311
     27 C          65.4438   91.9532   15.4751 C.2     1  UNL1        0.2319
     28 C          64.3158   91.0645   15.0418 C.2     1  UNL1        0.0328
     29 C          64.1593   91.2051   13.5566 C.2     1  UNL1        0.0704
     30 C          63.2109   90.5707   12.5828 C.3     1  UNL1        0.0598
@<TRIPOS>BOND
     1    21    22    1
     2    22    23    2
     3    23    24    1
     4    24    25    2
     5    25    26    1
     6    26    27    2
     7    27    28    1
     8    28    20    1
     9    20     1    1
    10     1     2   ar
    11     2     3   ar
    12     3     4   ar
    13     4     7    1
    14     7     9    1
    15     9    10    1
    16    10    11   ar
    17    11    12   ar
    18    12    13   ar
    19    13    16    1
    20    16    17    1
    21    16    18    1
    22    16    19    1
    23    13    14   ar
    24    14    15   ar
    25     4     5   ar
    26     5     6   ar
    27    28    29    2
    28    29    30    1
    29    30    22    1
    30    29    25    1
    31     6     1   ar
    32    15    10   ar
    33     7     8    1
@<TRIPOS>MOLECULE
*****
 30 33 0 0 0
SMALL
GASTEIGER

@<TRIPOS>ATOM
      1 C          63.3491   84.4844   14.7131 C.ar    1  UNL1        0.0016
      2 C          64.3711   85.5365   14.3992 C.ar    1  UNL1        0.0005
      3 C          64.3819   86.8247   15.1676 C.ar    1  UNL1        0.0338
      4 C          63.3707   87.0608   16.2501 C.ar    1  UNL1        0.1287
      5 N          62.3487   86.0086   16.5641 N.ar    1  UNL1       -0.2297
      6 C          62.3378   84.7205   15.7956 C.ar    1  UNL1        0.0963
      7 N          63.3816   88.3490   17.0185 N.pl3   1  UNL1       -0.3144
      8 H          63.7765   88.3812   17.9198 H       1  UNL1        0.1485
      9 C          62.7908   89.5880   16.4138 C.3     1  UNL1        0.1169
     10 C          63.5179   90.3070   15.3163 C.ar    1  UNL1        0.0166
     11 C          63.2162   89.9878   13.8821 C.ar    1  UNL1        0.0004
     12 C          63.9433   90.7068   12.7847 C.ar    1  UNL1        0.0228
     13 C          64.9722   91.7450   13.1214 C.ar    1  UNL1        0.1526
     14 N          65.2740   92.0642   14.5558 N.ar    1  UNL1       -0.2401
     15 C          64.5469   91.3452   15.6531 C.ar    1  UNL1        0.0961
     16 C          65.6993   92.4640   12.0240 C.3     1  UNL1        0.4348
     17 F          66.4264   93.1829   10.9266 F       1  UNL1       -0.1644
     18 F          66.6778   93.0027   13.0252 F       1  UNL1       -0.1644
     19 F          64.7208   91.9252   11.0228 F       1  UNL1       -0.1644
     20 C          63.3382   83.1963   13.9447 C.3     1  UNL1        0.0580
     21 C          60.8263   87.2433   10.4656 C.3     1  UNL1        0.0307
     22 C          61.7785   86.0899   10.3516 C.2     1  UNL1        0.0074
     23 C          62.3577   85.7247    9.0170 C.2     1  UNL1        0.2278
     24 N          63.3099   84.5713    8.9029 N.2     1  UNL1       -0.0314
     25 C          63.6830   83.7832   10.1234 C.2     1  UNL1        0.3716
     26 N          64.5896   82.6043   10.3186 N.2     1  UNL1       -0.0311
     27 C          64.5709   82.2409   11.7738 C.2     1  UNL1        0.2319
     28 C          63.6526   83.1952   12.4780 C.2     1  UNL1        0.0328
     29 C          63.1038   84.1484   11.4580 C.2     1  UNL1        0.0704
     30 C          62.1516   85.3018   11.5721 C.3     1  UNL1        0.0598
@<TRIPOS>BOND
     1    21    22    1
     2    22    23    2
     3    23    24    1
     4    24    25    2
     5    25    26    1
     6    26    27    2
     7    27    28    1
     8    28    20    1
     9    20     1    1
    10     1     2   ar
    11     2     3   ar
    12     3     4   ar
    13     4     7    1
    14     7     9    1
    15     9    10    1
    16    10    11   ar
    17    11    12   ar
    18    12    13   ar
    19    13    16    1
    20    16    17    1
    21    16    18    1
    22    16    19    1
    23    13    14   ar
    24    14    15   ar
    25     4     5   ar
    26     5     6   ar
    27    28    29    2
    28    29    30    1
    29    30    22    1
    30    29    25    1
    31     6     1   ar
    32    15    10   ar
    33     7     8    1
@<TRIPOS>MOLECULE
*****
 30 33 0 0 0
SMALL
GASTEIGER

@<TRIPOS>ATOM
      1 C          62.6744   84.9659    9.7605 C.ar    1  UNL1        0.0016
      2 C          62.5517   85.6180    8.4153 C.ar    1  UNL1        0.0005
      3 C          61.5795   86.7421    8.2125 C.ar    1  UNL1        0.0338
      4 C          60.7299   87.2141    9.3550 C.ar    1  UNL1        0.1287
      5 N          60.8526   86.5620   10.7003 N.ar    1  UNL1       -0.2297
      6 C          61.8248   85.4379   10.9031 C.ar    1  UNL1        0.0963
      7 N          59.7576   88.3382    9.1522 N.pl3   1  UNL1       -0.3144
      8 H          58.8690   88.1573    8.7690 H       1  UNL1        0.1485
      9 C          60.1393   89.7379    9.5333 C.3     1  UNL1        0.1169
     10 C          61.2427   89.9714   10.5222 C.ar    1  UNL1        0.0166
     11 C          62.5472   90.5550   10.0665 C.ar    1  UNL1        0.0004
     12 C          63.6506   90.7886   11.0553 C.ar    1  UNL1        0.0228
     13 C          63.4496   90.4386   12.5000 C.ar    1  UNL1        0.1526
     14 N          62.1450   89.8550   12.9557 N.ar    1  UNL1       -0.2401
     15 C          61.0417   89.6214   11.9669 C.ar    1  UNL1        0.0961
     16 C          64.5530   90.6722   13.4889 C.3     1  UNL1        0.4348
     17 F          65.6564   90.9058   14.4778 F       1  UNL1       -0.1644
     18 F          64.4536   89.2442   13.9371 F       1  UNL1       -0.1644
     19 F          64.6524   92.1002   13.0406 F       1  UNL1       -0.1644
     20 C          63.6467   83.8418    9.9633 C.3     1  UNL1        0.0580
     21 C          64.4900   86.1345   15.3321 C.3     1  UNL1        0.0307
     22 C          64.1580   84.8114   14.7082 C.2     1  UNL1        0.0074
     23 C          63.9451   83.6059   15.5750 C.2     1  UNL1        0.2278
     24 N          63.6130   82.2828   14.9512 N.2     1  UNL1       -0.0314
     25 C          63.4938   82.1653   13.4606 C.2     1  UNL1        0.3716
     26 N          63.1802   81.0017   12.5674 N.2     1  UNL1       -0.0311
     27 C          63.1993   81.4881   11.1486 C.2     1  UNL1        0.2319
     28 C          63.5247   82.9523   11.1649 C.2     1  UNL1        0.0328
     29 C          63.7067   83.3708   12.5938 C.2     1  UNL1        0.0704
     30 C          64.0388   84.6939   13.2177 C.3     1  UNL1        0.0598
@<TRIPOS>BOND
     1    21    22    1
     2    22    23    2
     3    23    24    1
     4    24    25    2
     5    25    26    1
     6    26    27    2
     7    27    28    1
     8    28    20    1
     9    20     1    1
    10     1     2   ar
    11     2     3   ar
    12     3     4   ar
    13     4     7    1
    14     7     9    1
    15     9    10    1
    16    10    11   ar
    17    11    12   ar
    18    12    13   ar
    19    13    16    1
    20    16    17    1
    21    16    18    1
    22    16    19    1
    23    13    14   ar
    24    14    15   ar
    25     4     5   ar
    26     5     6   ar
    27    28    29    2
    28    29    30    1
    29    30    22    1
    30    29    25    1
    31     6     1   ar
    32    15    10   ar
    33     7     8    1
@<TRIPOS>MOLECULE
*****
 30 33 0 0 0
SMALL
GASTEIGER

@<TRIPOS>ATOM
      1 C          62.0274   87.0600   10.5532 C.ar    1  UNL1        0.0016
      2 C          61.5853   88.1885    9.6696 C.ar    1  UNL1        0.0005
      3 C          61.8625   89.6073   10.0697 C.ar    1  UNL1        0.0338
      4 C          62.5820   89.8976   11.3535 C.ar    1  UNL1        0.1287
      5 N          63.0241   88.7690   12.2372 N.ar    1  UNL1       -0.2297
      6 C          62.7469   87.3502   11.8370 C.ar    1  UNL1        0.0963
      7 N          62.8592   91.3164   11.7537 N.pl3   1  UNL1       -0.3144
      8 H          62.1743   91.8351   12.2344 H       1  UNL1        0.1485
      9 C          64.1800   91.9449   11.4214 C.3     1  UNL1        0.1169
     10 C          65.2392   92.0668   12.4765 C.ar    1  UNL1        0.0166
     11 C          65.1280   91.2754   13.7459 C.ar    1  UNL1        0.0004
     12 C          66.1871   91.3973   14.8010 C.ar    1  UNL1        0.0228
     13 C          67.3576   92.3107   14.5868 C.ar    1  UNL1        0.1526
     14 N          67.4688   93.1021   13.3173 N.ar    1  UNL1       -0.2401
     15 C          66.4096   92.9802   12.2623 C.ar    1  UNL1        0.0961
     16 C          68.4168   92.4326   15.6419 C.3     1  UNL1        0.4348
     17 F          69.4759   92.5545   16.6970 F       1  UNL1       -0.1644
     18 F          69.4747   92.4441   14.5786 F       1  UNL1       -0.1644
     19 F          67.3587   92.4211   16.7052 F       1  UNL1       -0.1644
     20 C          61.7502   85.6412   10.1530 C.3     1  UNL1        0.0580
     21 C          62.3103   83.8261   15.7372 C.3     1  UNL1        0.0307
     22 C          62.8986   83.5312   14.3893 C.2     1  UNL1        0.0074
     23 C          63.9632   82.4840   14.2483 C.2     1  UNL1        0.2278
     24 N          64.5514   82.1891   12.9003 N.2     1  UNL1       -0.0314
     25 C          64.0750   82.9415   11.6933 C.2     1  UNL1        0.3716
     26 N          64.4654   82.8691   10.2468 N.2     1  UNL1       -0.0311
     27 C          63.6420   83.8716    9.4937 C.2     1  UNL1        0.2319
     28 C          62.7428   84.5636   10.4748 C.2     1  UNL1        0.0328
     29 C          63.0104   83.9887   11.8342 C.2     1  UNL1        0.0704
     30 C          62.4222   84.2836   13.1822 C.3     1  UNL1        0.0598
@<TRIPOS>BOND
     1    21    22    1
     2    22    23    2
     3    23    24    1
     4    24    25    2
     5    25    26    1
     6    26    27    2
     7    27    28    1
     8    28    20    1
     9    20     1    1
    10     1     2   ar
    11     2     3   ar
    12     3     4   ar
    13     4     7    1
    14     7     9    1
    15     9    10    1
    16    10    11   ar
    17    11    12   ar
    18    12    13   ar
    19    13    16    1
    20    16    17    1
    21    16    18    1
    22    16    19    1
    23    13    14   ar
    24    14    15   ar
    25     4     5   ar
    26     5     6   ar
    27    28    29    2
    28    29    30    1
    29    30    22    1
    30    29    25    1
    31     6     1   ar
    32    15    10   ar
    33     7     8    1
@<TRIPOS>MOLECULE
*****
 30 33 0 0 0
SMALL
GASTEIGER

@<TRIPOS>ATOM
      1 C          63.0845   84.5183   10.3685 C.ar    1  UNL1        0.0016
      2 C          63.9448   83.3312   10.6857 C.ar    1  UNL1        0.0005
      3 C          64.0210   82.8145   12.0919 C.ar    1  UNL1        0.0338
      4 C          63.2369   83.4849   13.1808 C.ar    1  UNL1        0.1287
      5 N          62.3766   84.6721   12.8635 N.ar    1  UNL1       -0.2297
      6 C          62.3004   85.1888   11.4574 C.ar    1  UNL1        0.0963
      7 N          63.3132   82.9682   14.5869 N.pl3   1  UNL1       -0.3144
      8 H          62.8874   82.1118   14.8204 H       1  UNL1        0.1485
      9 C          64.0382   83.7563   15.6373 C.3     1  UNL1        0.1169
     10 C          63.9327   85.2524   15.6585 C.ar    1  UNL1        0.0166
     11 C          64.6587   86.0702   14.6319 C.ar    1  UNL1        0.0004
     12 C          64.5532   87.5663   14.6531 C.ar    1  UNL1        0.0228
     13 C          63.7216   88.2447   15.7012 C.ar    1  UNL1        0.1526
     14 N          62.9956   87.4268   16.7279 N.ar    1  UNL1       -0.2401
     15 C          63.1011   85.9308   16.7066 C.ar    1  UNL1        0.0961
     16 C          63.6161   89.7408   15.7224 C.3     1  UNL1        0.4348
     17 F          63.5106   91.2369   15.7437 F       1  UNL1       -0.1644
     18 F          62.8888   89.6709   17.0324 F       1  UNL1       -0.1644
     19 F          64.3436   89.8107   14.4124 F       1  UNL1       -0.1644
     20 C          63.0083   85.0350    8.9624 C.3     1  UNL1        0.0580
     21 C          62.2333   90.5510   10.9028 C.3     1  UNL1        0.0307
     22 C          61.5462   89.5606   10.0100 C.2     1  UNL1        0.0074
     23 C          60.2622   89.9300    9.3282 C.2     1  UNL1        0.2278
     24 N          59.5751   88.9397    8.4354 N.2     1  UNL1       -0.0314
     25 C          60.1720   87.5798    8.2244 C.2     1  UNL1        0.3716
     26 N          59.7257   86.4035    7.4077 N.2     1  UNL1       -0.0311
     27 C          60.7339   85.3070    7.5847 C.2     1  UNL1        0.2319
     28 C          61.8033   85.8057    8.5108 C.2     1  UNL1        0.0328
     29 C          61.4560   87.2104    8.9062 C.2     1  UNL1        0.0704
     30 C          62.1431   88.2008    9.7990 C.3     1  UNL1        0.0598
@<TRIPOS>BOND
     1    21    22    1
     2    22    23    2
     3    23    24    1
     4    24    25    2
     5    25    26    1
     6    26    27    2
     7    27    28    1
     8    28    20    1
     9    20     1    1
    10     1     2   ar
    11     2     3   ar
    12     3     4   ar
    13     4     7    1
    14     7     9    1
    15     9    10    1
    16    10    11   ar
    17    11    12   ar
    18    12    13   ar
    19    13    16    1
    20    16    17    1
    21    16    18    1
    22    16    19    1
    23    13    14   ar
    24    14    15   ar
    25     4     5   ar
    26     5     6   ar
    27    28    29    2
    28    29    30    1
    29    30    22    1
    30    29    25    1
    31     6     1   ar
    32    15    10   ar
    33     7     8    1
@<TRIPOS>MOLECULE
*****
 30 33 0 0 0
SMALL
GASTEIGER

@<TRIPOS>ATOM
      1 C          63.9229   91.6432   11.0674 C.ar    1  UNL1        0.0016
      2 C          63.8594   90.9602   12.4013 C.ar    1  UNL1        0.0005
      3 C          62.8440   89.8834   12.6450 C.ar    1  UNL1        0.0338
      4 C          61.8921   89.4894   11.5547 C.ar    1  UNL1        0.1287
      5 N          61.9557   90.1725   10.2207 N.ar    1  UNL1       -0.2297
      6 C          62.9710   91.2493    9.9770 C.ar    1  UNL1        0.0963
      7 N          60.8768   88.4126   11.7984 N.pl3   1  UNL1       -0.3144
      8 H          60.8286   87.9712   12.6771 H       1  UNL1        0.1485
      9 C          59.9349   88.0081   10.7033 C.3     1  UNL1        0.1169
     10 C          60.4149   87.1263    9.5889 C.ar    1  UNL1        0.0166
     11 C          61.8248   86.6143    9.5917 C.ar    1  UNL1        0.0004
     12 C          62.3048   85.7325    8.4773 C.ar    1  UNL1        0.0228
     13 C          61.3749   85.3625    7.3600 C.ar    1  UNL1        0.1526
     14 N          59.9649   85.8745    7.3572 N.ar    1  UNL1       -0.2401
     15 C          59.4850   86.7563    8.4716 C.ar    1  UNL1        0.0961
     16 C          61.8549   84.4806    6.2456 C.3     1  UNL1        0.4348
     17 F          62.3349   83.5988    5.1312 F       1  UNL1       -0.1644
     18 F          60.4343   84.1499    5.8955 F       1  UNL1       -0.1644
     19 F          63.2755   84.8114    6.5959 F       1  UNL1       -0.1644
     20 C          64.9383   92.7201   10.8237 C.3     1  UNL1        0.0580
     21 C          66.7381   92.6855   16.4407 C.3     1  UNL1        0.0307
     22 C          67.3160   92.5055   15.0683 C.2     1  UNL1        0.0074
     23 C          68.7802   92.2256   14.9018 C.2     1  UNL1        0.2278
     24 N          69.3582   92.0457   13.5294 N.2     1  UNL1       -0.0314
     25 C          68.4719   92.1456   12.3234 C.2     1  UNL1        0.3716
     26 N          68.7550   92.0152   10.8561 N.2     1  UNL1       -0.0311
     27 C          67.4658   92.2145   10.1157 C.2     1  UNL1        0.2319
     28 C          66.3858   92.4681   11.1254 C.2     1  UNL1        0.0328
     29 C          67.0077   92.4255   12.4898 C.2     1  UNL1        0.0704
     30 C          66.4298   92.6055   13.8623 C.3     1  UNL1        0.0598
@<TRIPOS>BOND
     1    21    22    1
     2    22    23    2
     3    23    24    1
     4    24    25    2
     5    25    26    1
     6    26    27    2
     7    27    28    1
     8    28    20    1
     9    20     1    1
    10     1     2   ar
    11     2     3   ar
    12     3     4   ar
    13     4     7    1
    14     7     9    1
    15     9    10    1
    16    10    11   ar
    17    11    12   ar
    18    12    13   ar
    19    13    16    1
    20    16    17    1
    21    16    18    1
    22    16    19    1
    23    13    14   ar
    24    14    15   ar
    25     4     5   ar
    26     5     6   ar
    27    28    29    2
    28    29    30    1
    29    30    22    1
    30    29    25    1
    31     6     1   ar
    32    15    10   ar
    33     7     8    1
@<TRIPOS>MOLECULE
*****
 30 33 0 0 0
SMALL
GASTEIGER

@<TRIPOS>ATOM
      1 C          63.3525   84.4484   14.7821 C.ar    1  UNL1        0.0016
      2 C          62.3497   84.6088   15.8860 C.ar    1  UNL1        0.0005
      3 C          62.2374   85.9159   16.6132 C.ar    1  UNL1        0.0338
      4 C          63.1279   87.0627   16.2365 C.ar    1  UNL1        0.1287
      5 N          64.1307   86.9023   15.1324 N.ar    1  UNL1       -0.2297
      6 C          64.2430   85.5952   14.4052 C.ar    1  UNL1        0.0963
      7 N          63.0156   88.3698   16.9636 N.pl3   1  UNL1       -0.3144
      8 H          63.0670   88.3923   17.9465 H       1  UNL1        0.1485
      9 C          62.8248   89.6427   16.1933 C.3     1  UNL1        0.1169
     10 C          63.9819   90.5745   15.9862 C.ar    1  UNL1        0.0166
     11 C          64.9652   90.3159   14.8835 C.ar    1  UNL1        0.0004
     12 C          66.1223   91.2477   14.6765 C.ar    1  UNL1        0.0228
     13 C          66.2960   92.4383   15.5722 C.ar    1  UNL1        0.1526
     14 N          65.3126   92.6970   16.6749 N.ar    1  UNL1       -0.2401
     15 C          64.1556   91.7651   16.8819 C.ar    1  UNL1        0.0961
     16 C          67.4530   93.3702   15.3651 C.3     1  UNL1        0.4348
     17 F          68.6101   94.3021   15.1581 F       1  UNL1       -0.1644
     18 F          66.6307   94.1781   14.4054 F       1  UNL1       -0.1644
     19 F          68.2754   92.5622   16.3249 F       1  UNL1       -0.1644
     20 C          63.4648   83.1413   14.0549 C.3     1  UNL1        0.0580
     21 C          60.8544   87.1127   10.5612 C.3     1  UNL1        0.0307
     22 C          61.8180   85.9687   10.4479 C.2     1  UNL1        0.0074
     23 C          62.3812   85.5923    9.1097 C.2     1  UNL1        0.2278
     24 N          63.3449   84.4483    8.9964 N.2     1  UNL1       -0.0314
     25 C          63.7453   83.6809   10.2214 C.2     1  UNL1        0.3716
     26 N          64.6683   82.5151   10.4183 N.2     1  UNL1       -0.0311
     27 C          64.6756   82.1710   11.8783 C.2     1  UNL1        0.2319
     28 C          63.7571   83.1242   12.5837 C.2     1  UNL1        0.0328
     29 C          63.1821   84.0574   11.5596 C.2     1  UNL1        0.0704
     30 C          62.2185   85.2013   11.6729 C.3     1  UNL1        0.0598
@<TRIPOS>BOND
     1    21    22    1
     2    22    23    2
     3    23    24    1
     4    24    25    2
     5    25    26    1
     6    26    27    2
     7    27    28    1
     8    28    20    1
     9    20     1    1
    10     1     2   ar
    11     2     3   ar
    12     3     4   ar
    13     4     7    1
    14     7     9    1
    15     9    10    1
    16    10    11   ar
    17    11    12   ar
    18    12    13   ar
    19    13    16    1
    20    16    17    1
    21    16    18    1
    22    16    19    1
    23    13    14   ar
    24    14    15   ar
    25     4     5   ar
    26     5     6   ar
    27    28    29    2
    28    29    30    1
    29    30    22    1
    30    29    25    1
    31     6     1   ar
    32    15    10   ar
    33     7     8    1
