@<TRIPOS>MOLECULE
*****
 57 63 0 0 0
SMALL
GASTEIGER

@<TRIPOS>ATOM
      1 N          62.9456   84.0815    9.5178 N.3     1  UNL1       -0.1862
      2 C          62.3033   84.1500    8.1641 C.3     1  UNL1        0.1775
      3 C          61.4670   85.3377    7.7900 C.2     1  UNL1        0.2452
      4 O          60.8246   85.4062    6.4361 O.2     1  UNL1       -0.2732
      5 N          61.2729   86.4568    8.7697 N.am    1  UNL1       -0.2541
      6 C          60.4365   87.6445    8.3956 C.3     1  UNL1        0.1577
      7 C          60.2424   88.7636    9.3753 C.2     1  UNL1        0.2445
      8 O          59.4061   89.9513    9.0012 O.2     1  UNL1       -0.2731
      9 N          60.8848   88.6951   10.7291 N.am    1  UNL1       -0.2705
     10 C          61.7211   87.5075   11.1032 C.3     1  UNL1        0.1359
     11 C          61.9152   86.3883   10.1234 C.3     1  UNL1        0.1908
     12 N          62.7515   85.2006   10.4975 N.am    1  UNL1       -0.1863
     13 C          63.3938   85.1321   11.8513 C.2     1  UNL1        0.3191
     14 O          63.1998   86.2513   12.8310 O.2     1  UNL1       -0.2512
     15 N          64.2302   83.9445   12.2254 N.am    1  UNL1       -0.2836
     16 H          64.3576   83.2099   11.5824 H       1  UNL1        0.1513
     17 C          63.7820   82.8938    9.8919 C.3     1  UNL1        0.1188
     18 C          62.7970   81.2172   11.6149 C.2     1  UNL1       -0.0034
     19 C          63.1253   81.5802   10.1970 C.2     1  UNL1       -0.0071
     20 C          59.7942   87.7130    7.0418 C.3     1  UNL1        0.0556
     21 C          59.5654   89.0429    6.3867 C.ar    1  UNL1       -0.0198
     22 C          58.1778   89.6052    6.2957 C.ar    1  UNL1       -0.0011
     23 C          57.9489   90.9350    5.6406 C.ar    1  UNL1        0.0363
     24 C          59.1076   91.7025    5.0765 C.ar    1  UNL1        0.1337
     25 O          58.8788   93.0324    4.4214 O.3     1  UNL1       -0.5055
     26 C          60.4953   91.1402    5.1675 C.ar    1  UNL1        0.0363
     27 C          60.7242   89.8104    5.8226 C.ar    1  UNL1       -0.0011
     28 H          58.0120   93.3836    4.3645 H       1  UNL1        0.2922
     29 C          60.6907   89.8143   11.7088 C.3     1  UNL1        0.1217
     30 C          61.6907   90.0331   12.8053 C.ar    1  UNL1        0.0135
     31 C          61.4069   89.5317   14.1902 C.ar    1  UNL1       -0.0012
     32 C          62.4068   89.7505   15.2867 C.ar    1  UNL1       -0.0002
     33 C          63.6905   90.4707   14.9982 C.ar    1  UNL1        0.0016
     34 C          63.9744   90.9721   13.6132 C.ar    1  UNL1        0.0214
     35 C          65.1441   91.7105   13.0332 C.ar    1  UNL1        0.0721
     36 C          64.8671   91.9480   11.5783 C.ar    1  UNL1        0.0805
     37 N          63.5262   91.3565   11.2591 N.ar    1  UNL1       -0.3241
     38 C          62.8549   91.3663    9.9178 C.3     1  UNL1        0.1305
     39 C          62.9744   90.7533   12.5168 C.ar    1  UNL1        0.0577
     40 C          66.3749   92.1365   13.7775 C.2     1  UNL1        0.2506
     41 O          66.2786   92.5339   15.2207 O.2     1  UNL1       -0.2699
     42 N          67.7017   92.1652   13.0785 N.am    1  UNL1       -0.2742
     43 C          68.9324   92.5912   13.8227 C.3     1  UNL1        0.1152
     44 C          67.7979   91.7678   11.6353 C.3     1  UNL1        0.0961
     45 C          67.9081   92.8212   10.5732 C.3     1  UNL1        0.0454
     46 C          68.2860   93.4893    9.2844 C.3     1  UNL1        0.0042
     47 C          68.7171   92.0777    9.5519 C.3     1  UNL1        0.0042
     48 C          67.1374   93.9305   11.2254 C.3     1  UNL1        0.1387
     49 O          67.0934   95.2882   10.5892 O.3     1  UNL1       -0.3819
     50 H          67.9811   95.6792   10.5998 H       1  UNL1        0.2104
     51 C          64.8725   83.8759   13.5792 C.3     1  UNL1        0.1177
     52 C          64.2575   84.6020   14.7387 C.ar    1  UNL1       -0.0025
     53 C          63.0911   84.0018   15.4662 C.ar    1  UNL1       -0.0026
     54 C          62.4761   84.7279   16.6257 C.ar    1  UNL1       -0.0003
     55 C          63.0276   86.0542   17.0579 C.ar    1  UNL1       -0.0000
     56 C          64.1940   86.6545   16.3304 C.ar    1  UNL1       -0.0003
     57 C          64.8090   85.9284   15.1709 C.ar    1  UNL1       -0.0026
@<TRIPOS>BOND
     1    18    19    2
     2    19    17    1
     3    17     1    1
     4     1     2    1
     5     2     3    1
     6     3     4    2
     7     3     5   am
     8     5     6    1
     9     6    20    1
    10    20    21    1
    11    21    22   ar
    12    22    23   ar
    13    23    24   ar
    14    24    25    1
    15    24    26   ar
    16    26    27   ar
    17     6     7    1
    18     7     8    2
    19     7     9   am
    20     9    29    1
    21    29    30    1
    22    30    31   ar
    23    31    32   ar
    24    32    33   ar
    25    33    34   ar
    26    34    35   ar
    27    35    40    1
    28    40    41    2
    29    40    42   am
    30    42    43    1
    31    42    44    1
    32    44    45    1
    33    45    48    1
    34    48    49    1
    35    45    46    1
    36    46    47    1
    37    35    36   ar
    38    36    37   ar
    39    37    38    1
    40    37    39   ar
    41     9    10    1
    42    11    10    1
    43    11    12    1
    44    12    13   am
    45    13    14    2
    46    13    15   am
    47    15    51    1
    48    51    52    1
    49    52    53   ar
    50    53    54   ar
    51    54    55   ar
    52    55    56   ar
    53    56    57   ar
    54    12     1    1
    55    57    52   ar
    56    11     5    1
    57    27    21   ar
    58    39    30   ar
    59    39    34   ar
    60    47    45    1
    61    25    28    1
    62    49    50    1
    63    15    16    1
@<TRIPOS>MOLECULE
*****
 57 63 0 0 0
SMALL
GASTEIGER

@<TRIPOS>ATOM
      1 N          61.3994   85.8504    8.3491 N.3     1  UNL1       -0.1862
      2 C          62.2657   84.6961    8.7579 C.3     1  UNL1        0.1775
      3 C          63.0113   84.7417   10.0587 C.2     1  UNL1        0.2452
      4 O          63.8777   83.5873   10.4674 O.2     1  UNL1       -0.2732
      5 N          62.8906   85.9415   10.9507 N.am    1  UNL1       -0.2541
      6 C          63.6362   85.9871   12.2514 C.3     1  UNL1        0.1577
      7 C          63.5155   87.1870   13.1435 C.2     1  UNL1        0.2445
      8 O          64.2611   87.2325   14.4442 O.2     1  UNL1       -0.2731
      9 N          62.6492   88.3413   12.7347 N.am    1  UNL1       -0.2705
     10 C          61.9036   88.2957   11.4340 C.3     1  UNL1        0.1359
     11 C          62.0243   87.0958   10.5419 C.3     1  UNL1        0.1908
     12 N          61.2787   87.0502    9.2411 N.am    1  UNL1       -0.1863
     13 C          60.4124   88.2046    8.8324 C.2     1  UNL1        0.3191
     14 O          60.2917   89.4044    9.7244 O.2     1  UNL1       -0.2512
     15 N          59.6668   88.1590    7.5316 N.am    1  UNL1       -0.2836
     16 H          59.7460   87.3715    6.9462 H       1  UNL1        0.1513
     17 C          60.6538   85.8048    7.0484 C.3     1  UNL1        0.1188
     18 C          62.0121   84.3187    5.4063 C.2     1  UNL1       -0.0034
     19 C          60.7507   84.5925    6.1704 C.2     1  UNL1       -0.0071
     20 C          64.5025   84.8328   12.6602 C.3     1  UNL1        0.0556
     21 C          63.8767   83.5725   13.1796 C.ar    1  UNL1       -0.0198
     22 C          62.6605   83.6443   14.0546 C.ar    1  UNL1       -0.0011
     23 C          62.0347   82.3840   14.5740 C.ar    1  UNL1        0.0363
     24 C          62.6251   81.0517   14.2185 C.ar    1  UNL1        0.1337
     25 O          61.9993   79.7913   14.7379 O.3     1  UNL1       -0.5055
     26 C          63.8414   80.9798   13.3435 C.ar    1  UNL1        0.0363
     27 C          64.4672   82.2401   12.8241 C.ar    1  UNL1       -0.0011
     28 H          61.2395   79.8362   15.2845 H       1  UNL1        0.2922
     29 C          62.5285   89.5412   13.6267 C.3     1  UNL1        0.1217
     30 C          63.6741   90.5014   13.7514 C.ar    1  UNL1        0.0135
     31 C          64.5582   90.4609   14.9626 C.ar    1  UNL1       -0.0012
     32 C          65.7038   91.4211   15.0873 C.ar    1  UNL1       -0.0002
     33 C          65.9654   92.4217   14.0009 C.ar    1  UNL1        0.0016
     34 C          65.0814   92.4621   12.7897 C.ar    1  UNL1        0.0214
     35 C          65.0936   93.3304   11.5667 C.ar    1  UNL1        0.0721
     36 C          63.9556   92.9069   10.6861 C.ar    1  UNL1        0.0805
     37 N          63.2400   91.7769   11.3649 N.ar    1  UNL1       -0.3241
     38 C          62.0394   91.0495   10.8364 C.3     1  UNL1        0.1305
     39 C          63.9357   91.5020   12.6650 C.ar    1  UNL1        0.0577
     40 C          66.0722   94.4294   11.2754 C.2     1  UNL1        0.2506
     41 O          66.1085   95.6513   12.1447 O.2     1  UNL1       -0.2699
     42 N          67.0145   94.3064   10.1148 N.am    1  UNL1       -0.2742
     43 C          67.9931   95.4053    9.8234 C.3     1  UNL1        0.1152
     44 C          66.9782   93.0845    9.2455 C.3     1  UNL1        0.0961
     45 C          68.2066   92.2377    9.0904 C.3     1  UNL1        0.0454
     46 C          69.4579   91.6655    8.4931 C.3     1  UNL1        0.0042
     47 C          68.6993   92.7341    7.7634 C.3     1  UNL1        0.0042
     48 C          68.1406   91.4472   10.3635 C.3     1  UNL1        0.1387
     49 O          68.9052   91.9039   11.5704 O.3     1  UNL1       -0.3819
     50 H          69.8568   91.8447   11.3918 H       1  UNL1        0.2104
     51 C          58.8005   89.3133    7.1229 C.3     1  UNL1        0.1177
     52 C          59.2438   90.2309    6.0223 C.ar    1  UNL1       -0.0025
     53 C          58.2389   91.0839    5.3064 C.ar    1  UNL1       -0.0026
     54 C          58.6823   92.0015    4.2058 C.ar    1  UNL1       -0.0003
     55 C          60.1306   92.0662    3.8210 C.ar    1  UNL1       -0.0000
     56 C          61.1357   91.2133    4.5369 C.ar    1  UNL1       -0.0003
     57 C          60.6923   90.2956    5.6375 C.ar    1  UNL1       -0.0026
@<TRIPOS>BOND
     1    18    19    2
     2    19    17    1
     3    17     1    1
     4     1     2    1
     5     2     3    1
     6     3     4    2
     7     3     5   am
     8     5     6    1
     9     6    20    1
    10    20    21    1
    11    21    22   ar
    12    22    23   ar
    13    23    24   ar
    14    24    25    1
    15    24    26   ar
    16    26    27   ar
    17     6     7    1
    18     7     8    2
    19     7     9   am
    20     9    29    1
    21    29    30    1
    22    30    31   ar
    23    31    32   ar
    24    32    33   ar
    25    33    34   ar
    26    34    35   ar
    27    35    40    1
    28    40    41    2
    29    40    42   am
    30    42    43    1
    31    42    44    1
    32    44    45    1
    33    45    48    1
    34    48    49    1
    35    45    46    1
    36    46    47    1
    37    35    36   ar
    38    36    37   ar
    39    37    38    1
    40    37    39   ar
    41     9    10    1
    42    11    10    1
    43    11    12    1
    44    12    13   am
    45    13    14    2
    46    13    15   am
    47    15    51    1
    48    51    52    1
    49    52    53   ar
    50    53    54   ar
    51    54    55   ar
    52    55    56   ar
    53    56    57   ar
    54    12     1    1
    55    57    52   ar
    56    11     5    1
    57    27    21   ar
    58    39    30   ar
    59    39    34   ar
    60    47    45    1
    61    25    28    1
    62    49    50    1
    63    15    16    1
@<TRIPOS>MOLECULE
*****
 57 63 0 0 0
SMALL
GASTEIGER

@<TRIPOS>ATOM
      1 N          62.6347   83.9852    9.5613 N.3     1  UNL1       -0.1862
      2 C          61.8879   84.0307    8.2613 C.3     1  UNL1        0.1775
      3 C          61.1615   85.2793    7.8569 C.2     1  UNL1        0.2452
      4 O          60.4147   85.3247    6.5567 O.2     1  UNL1       -0.2732
      5 N          61.1819   86.4823    8.7526 N.am    1  UNL1       -0.2541
      6 C          60.4555   87.7308    8.3482 C.3     1  UNL1        0.1577
      7 C          60.4758   88.9338    9.2439 C.2     1  UNL1        0.2445
      8 O          59.7494   90.1823    8.8395 O.2     1  UNL1       -0.2731
      9 N          61.2226   88.8883   10.5440 N.am    1  UNL1       -0.2705
     10 C          61.9490   87.6398   10.9484 C.3     1  UNL1        0.1359
     11 C          61.9286   86.4367   10.0526 C.3     1  UNL1        0.1908
     12 N          62.6550   85.1882   10.4570 N.am    1  UNL1       -0.1863
     13 C          63.4018   85.1427   11.7572 C.2     1  UNL1        0.3191
     14 O          63.4221   86.3457   12.6529 O.2     1  UNL1       -0.2512
     15 N          64.1282   83.8942   12.1616 N.am    1  UNL1       -0.2836
     16 H          64.1148   83.1046   11.5737 H       1  UNL1        0.1513
     17 C          63.3611   82.7367    9.9657 C.3     1  UNL1        0.1188
     18 C          62.7811   81.0512   11.8559 C.2     1  UNL1       -0.0034
     19 C          62.5909   81.5451   10.4524 C.2     1  UNL1       -0.0071
     20 C          59.7087   87.7763    7.0481 C.3     1  UNL1        0.0556
     21 C          59.5290   89.0819    6.3317 C.ar    1  UNL1       -0.0198
     22 C          58.1699   89.7111    6.2491 C.ar    1  UNL1       -0.0011
     23 C          57.9901   91.0167    5.5328 C.ar    1  UNL1        0.0363
     24 C          59.1694   91.6930    4.8990 C.ar    1  UNL1        0.1337
     25 O          58.9897   92.9986    4.1826 O.3     1  UNL1       -0.5055
     26 C          60.5286   91.0638    4.9816 C.ar    1  UNL1        0.0363
     27 C          60.7084   89.7582    5.6980 C.ar    1  UNL1       -0.0011
     28 H          58.1407   93.3916    4.1310 H       1  UNL1        0.2922
     29 C          61.2429   90.0913   11.4397 C.3     1  UNL1        0.1217
     30 C          62.4891   90.9180   11.5572 C.ar    1  UNL1        0.0135
     31 C          62.9536   91.7439   10.3944 C.ar    1  UNL1       -0.0012
     32 C          64.1997   92.5705   10.5119 C.ar    1  UNL1       -0.0002
     33 C          64.9814   92.5712   11.7920 C.ar    1  UNL1        0.0016
     34 C          64.5169   91.7452   12.9548 C.ar    1  UNL1        0.0214
     35 C          65.0762   91.5475   14.3325 C.ar    1  UNL1        0.0721
     36 C          64.1757   90.5986   15.0666 C.ar    1  UNL1        0.0805
     37 N          63.0599   90.2100   14.1425 N.ar    1  UNL1       -0.3241
     38 C          61.9314   89.2766   14.4667 C.3     1  UNL1        0.1305
     39 C          63.2708   90.9186   12.8374 C.ar    1  UNL1        0.0577
     40 C          66.3180   92.1864   14.8801 C.2     1  UNL1        0.2506
     41 O          66.3149   92.7686   16.2625 O.2     1  UNL1       -0.2699
     42 N          67.5629   92.2432   14.0452 N.am    1  UNL1       -0.2742
     43 C          68.8047   92.8821   14.5927 C.3     1  UNL1        0.1152
     44 C          67.5660   91.6609   12.6628 C.3     1  UNL1        0.0961
     45 C          67.8115   92.5460   11.4769 C.3     1  UNL1        0.0454
     46 C          68.2718   92.9884   10.1195 C.3     1  UNL1        0.0042
     47 C          68.5151   91.5789   10.5713 C.3     1  UNL1        0.0042
     48 C          67.1933   93.8204   11.9704 C.3     1  UNL1        0.1387
     49 O          67.0577   94.9949   11.0473 O.3     1  UNL1       -0.3819
     50 H          67.9390   95.3232   10.8101 H       1  UNL1        0.2104
     51 C          64.8749   83.8487   13.4616 C.3     1  UNL1        0.1177
     52 C          64.3204   84.5434   14.6698 C.ar    1  UNL1       -0.0025
     53 C          63.1851   83.9285   15.4335 C.ar    1  UNL1       -0.0026
     54 C          62.6306   84.6233   16.6417 C.ar    1  UNL1       -0.0003
     55 C          63.2112   85.9329   17.0863 C.ar    1  UNL1       -0.0000
     56 C          64.3465   86.5479   16.3226 C.ar    1  UNL1       -0.0003
     57 C          64.9011   85.8531   15.1144 C.ar    1  UNL1       -0.0026
@<TRIPOS>BOND
     1    18    19    2
     2    19    17    1
     3    17     1    1
     4     1     2    1
     5     2     3    1
     6     3     4    2
     7     3     5   am
     8     5     6    1
     9     6    20    1
    10    20    21    1
    11    21    22   ar
    12    22    23   ar
    13    23    24   ar
    14    24    25    1
    15    24    26   ar
    16    26    27   ar
    17     6     7    1
    18     7     8    2
    19     7     9   am
    20     9    29    1
    21    29    30    1
    22    30    31   ar
    23    31    32   ar
    24    32    33   ar
    25    33    34   ar
    26    34    35   ar
    27    35    40    1
    28    40    41    2
    29    40    42   am
    30    42    43    1
    31    42    44    1
    32    44    45    1
    33    45    48    1
    34    48    49    1
    35    45    46    1
    36    46    47    1
    37    35    36   ar
    38    36    37   ar
    39    37    38    1
    40    37    39   ar
    41     9    10    1
    42    11    10    1
    43    11    12    1
    44    12    13   am
    45    13    14    2
    46    13    15   am
    47    15    51    1
    48    51    52    1
    49    52    53   ar
    50    53    54   ar
    51    54    55   ar
    52    55    56   ar
    53    56    57   ar
    54    12     1    1
    55    57    52   ar
    56    11     5    1
    57    27    21   ar
    58    39    30   ar
    59    39    34   ar
    60    47    45    1
    61    25    28    1
    62    49    50    1
    63    15    16    1
@<TRIPOS>MOLECULE
*****
 57 63 0 0 0
SMALL
GASTEIGER

@<TRIPOS>ATOM
      1 N          63.7896   86.2371   15.8905 N.3     1  UNL1       -0.1862
      2 C          63.9381   84.7639   16.1305 C.3     1  UNL1        0.1775
      3 C          63.8044   83.8007   14.9884 C.2     1  UNL1        0.2452
      4 O          63.9528   82.3274   15.2284 O.2     1  UNL1       -0.2732
      5 N          63.5222   84.3107   13.6063 N.am    1  UNL1       -0.2541
      6 C          63.3886   83.3475   12.4642 C.3     1  UNL1        0.1577
      7 C          63.1064   83.8575   11.0821 C.2     1  UNL1        0.2445
      8 O          62.9727   82.8943    9.9400 O.2     1  UNL1       -0.2731
      9 N          62.9579   85.3308   10.8420 N.am    1  UNL1       -0.2705
     10 C          63.0916   86.2939   11.9841 C.3     1  UNL1        0.1359
     11 C          63.3738   85.7839   13.3663 C.3     1  UNL1        0.1908
     12 N          63.5075   86.7470   14.5084 N.am    1  UNL1       -0.1863
     13 C          63.3590   88.2203   14.2683 C.2     1  UNL1        0.3191
     14 O          63.0768   88.7303   12.8862 O.2     1  UNL1       -0.2512
     15 N          63.4927   89.1835   15.4104 N.am    1  UNL1       -0.2836
     16 H          63.6778   88.8487   16.3176 H       1  UNL1        0.1513
     17 C          63.9233   87.2002   17.0326 C.3     1  UNL1        0.1188
     18 C          62.6814   86.8918   19.2936 C.2     1  UNL1       -0.0034
     19 C          62.7451   87.4834   17.9167 C.2     1  UNL1       -0.0071
     20 C          63.5370   81.8743   12.7042 C.3     1  UNL1        0.0556
     21 C          62.3604   81.0676   13.1677 C.ar    1  UNL1       -0.0198
     22 C          61.1351   81.7590   13.6878 C.ar    1  UNL1       -0.0011
     23 C          59.9586   80.9523   14.1514 C.ar    1  UNL1        0.0363
     24 C          60.0073   79.4542   14.0948 C.ar    1  UNL1        0.1337
     25 O          58.8307   78.6475   14.5584 O.3     1  UNL1       -0.5055
     26 C          61.2326   78.7627   13.5747 C.ar    1  UNL1        0.0363
     27 C          62.4092   79.5694   13.1111 C.ar    1  UNL1       -0.0011
     28 H          58.0653   79.0794   14.8833 H       1  UNL1        0.2922
     29 C          62.6758   85.8408    9.4599 C.3     1  UNL1        0.1217
     30 C          61.9998   87.1668    9.2732 C.ar    1  UNL1        0.0135
     31 C          62.3785   88.3304   10.1408 C.ar    1  UNL1       -0.0012
     32 C          61.7026   89.6563    9.9542 C.ar    1  UNL1       -0.0002
     33 C          60.6481   89.8188    8.8999 C.ar    1  UNL1        0.0016
     34 C          60.2694   88.6552    8.0323 C.ar    1  UNL1        0.0214
     35 C          59.2736   88.5152    6.9193 C.ar    1  UNL1        0.0721
     36 C          59.3341   87.1028    6.4181 C.ar    1  UNL1        0.0805
     37 N          60.3672   86.3698    7.2213 N.ar    1  UNL1       -0.3241
     38 C          60.7544   84.9301    7.0560 C.3     1  UNL1        0.1305
     39 C          60.9453   87.3292    8.2189 C.ar    1  UNL1        0.0577
     40 C          58.3750   89.5978    6.3989 C.2     1  UNL1        0.2506
     41 O          56.9075   89.5675    6.7078 O.2     1  UNL1       -0.2699
     42 N          58.9440   90.7106    5.5695 N.am    1  UNL1       -0.2742
     43 C          58.0456   91.7932    5.0491 C.3     1  UNL1        0.1152
     44 C          60.4116   90.7409    5.2606 C.3     1  UNL1        0.0961
     45 C          60.9254   91.6006    4.1440 C.3     1  UNL1        0.0454
     46 C          61.8291   92.1168    3.0637 C.3     1  UNL1        0.0042
     47 C          62.2265   90.9100    3.8609 C.3     1  UNL1        0.0042
     48 C          59.8027   92.5899    4.0391 C.3     1  UNL1        0.1387
     49 O          59.8267   93.6410    2.9693 O.3     1  UNL1       -0.3819
     50 H          60.5647   94.2495    3.1304 H       1  UNL1        0.2104
     51 C          63.3442   90.6567   15.1704 C.3     1  UNL1        0.1177
     52 C          64.5011   91.4505   14.6398 C.ar    1  UNL1       -0.0025
     53 C          65.4864   92.0660   15.5885 C.ar    1  UNL1       -0.0026
     54 C          66.6432   92.8598   15.0579 C.ar    1  UNL1       -0.0003
     55 C          66.8148   93.0380   13.5784 C.ar    1  UNL1       -0.0000
     56 C          65.8294   92.4224   12.6296 C.ar    1  UNL1       -0.0003
     57 C          64.6726   91.6286   13.1603 C.ar    1  UNL1       -0.0026
@<TRIPOS>BOND
     1    18    19    2
     2    19    17    1
     3    17     1    1
     4     1     2    1
     5     2     3    1
     6     3     4    2
     7     3     5   am
     8     5     6    1
     9     6    20    1
    10    20    21    1
    11    21    22   ar
    12    22    23   ar
    13    23    24   ar
    14    24    25    1
    15    24    26   ar
    16    26    27   ar
    17     6     7    1
    18     7     8    2
    19     7     9   am
    20     9    29    1
    21    29    30    1
    22    30    31   ar
    23    31    32   ar
    24    32    33   ar
    25    33    34   ar
    26    34    35   ar
    27    35    40    1
    28    40    41    2
    29    40    42   am
    30    42    43    1
    31    42    44    1
    32    44    45    1
    33    45    48    1
    34    48    49    1
    35    45    46    1
    36    46    47    1
    37    35    36   ar
    38    36    37   ar
    39    37    38    1
    40    37    39   ar
    41     9    10    1
    42    11    10    1
    43    11    12    1
    44    12    13   am
    45    13    14    2
    46    13    15   am
    47    15    51    1
    48    51    52    1
    49    52    53   ar
    50    53    54   ar
    51    54    55   ar
    52    55    56   ar
    53    56    57   ar
    54    12     1    1
    55    57    52   ar
    56    11     5    1
    57    27    21   ar
    58    39    30   ar
    59    39    34   ar
    60    47    45    1
    61    25    28    1
    62    49    50    1
    63    15    16    1
