@<TRIPOS>MOLECULE
*****
 26 27 0 0 0
SMALL
GASTEIGER

@<TRIPOS>ATOM
      1 C          63.5030   90.1924   16.4880 C.3     1  UNL1        0.0527
      2 C          63.4543   90.3068   14.9932 C.ar    1  UNL1        0.0673
      3 N          62.3897   89.7423   14.1000 N.ar    1  UNL1       -0.2283
      4 C          62.7391   90.0924   12.6838 C.ar    1  UNL1        0.1652
      5 S          64.0196   90.8734   12.7019 S.2     1  UNL1       -0.0517
      6 C          64.4617   91.0059   14.1292 C.ar    1  UNL1        0.0471
      7 C          65.6946   91.7133   14.6082 C.ar    1  UNL1        0.0265
      8 C          66.9446   91.6862   13.7796 C.ar    1  UNL1        0.0049
      9 C          68.1775   92.3936   14.2586 C.ar    1  UNL1        0.0339
     10 C          68.1604   93.1281   15.5664 C.ar    1  UNL1        0.1254
     11 N          69.3933   93.8355   16.0455 N.pl3   1  UNL1       -0.3426
     12 N          66.9104   93.1551   16.3951 N.ar    1  UNL1       -0.2296
     13 C          65.6775   92.4478   15.9160 C.ar    1  UNL1        0.1008
     14 H          70.2138   93.8177   15.5016 H       1  UNL1        0.1437
     15 H          69.3821   94.3175   16.9038 H       1  UNL1        0.1437
     16 N          61.9470   89.7260   11.4639 N.am    1  UNL1       -0.2642
     17 C          61.8550   88.2924   11.0321 C.2     1  UNL1        0.2273
     18 O          62.5551   87.2253   11.8203 O.2     1  UNL1       -0.2747
     19 H          61.4875   90.4263   10.9466 H       1  UNL1        0.1567
     20 C          61.0629   87.9259    9.8121 C.3     1  UNL1        0.0853
     21 C          60.5062   89.0023    8.9281 C.3     1  UNL1        0.0099
     22 C          60.8275   86.4831    9.4763 C.3     1  UNL1        0.1124
     23 C          61.3149   85.9278    8.1709 C.3     1  UNL1        0.3982
     24 F          61.8023   85.3725    6.8655 F       1  UNL1       -0.1700
     25 F          62.7320   86.1808    8.5924 F       1  UNL1       -0.1700
     26 F          59.8977   85.6749    7.7494 F       1  UNL1       -0.1700
@<TRIPOS>BOND
     1     1     2    1
     2     2     3   ar
     3     3     4   ar
     4     4    16    1
     5    16    17   am
     6    17    18    2
     7    17    20    1
     8    20    21    1
     9    20    22    1
    10    22    23    1
    11    23    24    1
    12    23    25    1
    13    23    26    1
    14     4     5   ar
    15     5     6   ar
    16     6     7    1
    17     7     8   ar
    18     8     9   ar
    19     9    10   ar
    20    10    11    1
    21    10    12   ar
    22    12    13   ar
    23     6     2   ar
    24    13     7   ar
    25    16    19    1
    26    11    14    1
    27    11    15    1
@<TRIPOS>MOLECULE
*****
 26 27 0 0 0
SMALL
GASTEIGER

@<TRIPOS>ATOM
      1 C          60.1303   90.4063   11.3036 C.3     1  UNL1        0.0527
      2 C          61.0156   89.2000   11.4079 C.ar    1  UNL1        0.0673
      3 N          60.5698   87.7698   11.3311 N.ar    1  UNL1       -0.2283
      4 C          61.7809   86.8979   11.4830 C.ar    1  UNL1        0.1652
      5 S          62.9752   87.7892   11.6538 S.2     1  UNL1       -0.0517
      6 C          62.5022   89.2120   11.6074 C.ar    1  UNL1        0.0471
      7 C          63.3646   90.4324   11.7375 C.ar    1  UNL1        0.0265
      8 C          63.7239   91.2303   10.5192 C.ar    1  UNL1        0.0049
      9 C          64.5862   92.4507   10.6495 C.ar    1  UNL1        0.0339
     10 C          65.0892   92.8732   11.9980 C.ar    1  UNL1        0.1254
     11 N          65.9516   94.0937   12.1281 N.pl3   1  UNL1       -0.3426
     12 N          64.7299   92.0754   13.2162 N.ar    1  UNL1       -0.2296
     13 C          63.8676   90.8550   13.0860 C.ar    1  UNL1        0.1008
     14 H          66.1874   94.6174   11.3285 H       1  UNL1        0.1437
     15 H          66.2817   94.3710   13.0132 H       1  UNL1        0.1437
     16 N          61.7951   85.3981   11.4670 N.am    1  UNL1       -0.2642
     17 C          62.5937   84.6447   12.4892 C.2     1  UNL1        0.2273
     18 O          63.3780   85.3912   13.5273 O.2     1  UNL1       -0.2747
     19 H          61.2804   84.9081   10.7857 H       1  UNL1        0.1567
     20 C          62.6079   83.1448   12.4732 C.3     1  UNL1        0.0853
     21 C          62.8795   82.4110   11.1935 C.3     1  UNL1        0.0099
     22 C          62.3506   82.3789   13.7369 C.3     1  UNL1        0.1124
     23 C          62.3150   80.8795   13.7111 C.3     1  UNL1        0.3982
     24 F          62.2793   79.3802   13.6853 F       1  UNL1       -0.1700
     25 F          63.8129   80.8427   13.7812 F       1  UNL1       -0.1700
     26 F          60.8171   80.9163   13.6410 F       1  UNL1       -0.1700
@<TRIPOS>BOND
     1     1     2    1
     2     2     3   ar
     3     3     4   ar
     4     4    16    1
     5    16    17   am
     6    17    18    2
     7    17    20    1
     8    20    21    1
     9    20    22    1
    10    22    23    1
    11    23    24    1
    12    23    25    1
    13    23    26    1
    14     4     5   ar
    15     5     6   ar
    16     6     7    1
    17     7     8   ar
    18     8     9   ar
    19     9    10   ar
    20    10    11    1
    21    10    12   ar
    22    12    13   ar
    23     6     2   ar
    24    13     7   ar
    25    16    19    1
    26    11    14    1
    27    11    15    1
@<TRIPOS>MOLECULE
*****
 26 27 0 0 0
SMALL
GASTEIGER

@<TRIPOS>ATOM
      1 C          63.2809   90.1940   16.1341 C.3     1  UNL1        0.0527
      2 C          63.3518   90.1808   14.6358 C.ar    1  UNL1        0.0673
      3 N          62.3922   89.4886   13.7139 N.ar    1  UNL1       -0.2283
      4 C          62.8420   89.7375   12.3047 C.ar    1  UNL1        0.1652
      5 S          64.0797   90.5834   12.3558 S.2     1  UNL1       -0.0517
      6 C          64.3947   90.8574   13.7965 C.ar    1  UNL1        0.0471
      7 C          65.5499   91.6661   14.3081 C.ar    1  UNL1        0.0265
      8 C          65.5920   92.0868   15.7473 C.ar    1  UNL1        0.0049
      9 C          66.7471   92.8954   16.2587 C.ar    1  UNL1        0.0339
     10 C          67.8602   93.2834   15.3311 C.ar    1  UNL1        0.1254
     11 N          69.0154   94.0921   15.8426 N.pl3   1  UNL1       -0.3426
     12 N          67.8181   92.8628   13.8919 N.ar    1  UNL1       -0.2296
     13 C          66.6629   92.0541   13.3804 C.ar    1  UNL1        0.1008
     14 H          69.0430   94.3682   16.7872 H       1  UNL1        0.1437
     15 H          69.7459   94.3468   15.2338 H       1  UNL1        0.1437
     16 N          62.1719   89.2295   11.0625 N.am    1  UNL1       -0.2642
     17 C          62.0067   87.7539   10.8494 C.2     1  UNL1        0.2273
     18 O          62.5117   86.7863   11.8784 O.2     1  UNL1       -0.2747
     19 H          61.8406   89.8646   10.3872 H       1  UNL1        0.1567
     20 C          61.3366   87.2460    9.6072 C.3     1  UNL1        0.0853
     21 C          62.0752   86.3286    8.6782 C.3     1  UNL1        0.0099
     22 C          59.9280   87.6554    9.2941 C.3     1  UNL1        0.1124
     23 C          59.5994   88.2496    7.9566 C.3     1  UNL1        0.3982
     24 F          59.2709   88.8438    6.6191 F       1  UNL1       -0.1700
     25 F          58.8752   86.9924    7.5760 F       1  UNL1       -0.1700
     26 F          60.3237   89.5068    8.3371 F       1  UNL1       -0.1700
@<TRIPOS>BOND
     1     1     2    1
     2     2     3   ar
     3     3     4   ar
     4     4    16    1
     5    16    17   am
     6    17    18    2
     7    17    20    1
     8    20    21    1
     9    20    22    1
    10    22    23    1
    11    23    24    1
    12    23    25    1
    13    23    26    1
    14     4     5   ar
    15     5     6   ar
    16     6     7    1
    17     7     8   ar
    18     8     9   ar
    19     9    10   ar
    20    10    11    1
    21    10    12   ar
    22    12    13   ar
    23     6     2   ar
    24    13     7   ar
    25    16    19    1
    26    11    14    1
    27    11    15    1
@<TRIPOS>MOLECULE
*****
 26 27 0 0 0
SMALL
GASTEIGER

@<TRIPOS>ATOM
      1 C          62.5234   89.7870   11.4956 C.3     1  UNL1        0.0527
      2 C          62.9057   88.5042   12.1725 C.ar    1  UNL1        0.0673
      3 N          62.7032   87.1232   11.6234 N.ar    1  UNL1       -0.2283
      4 C          63.2300   86.1426   12.6289 C.ar    1  UNL1        0.1652
      5 S          63.7580   86.9177   13.7995 S.2     1  UNL1       -0.0517
      6 C          63.5576   88.3773   13.5175 C.ar    1  UNL1        0.0471
      7 C          63.9416   89.5109   14.4217 C.ar    1  UNL1        0.0265
      8 C          65.0724   90.4212   14.0443 C.ar    1  UNL1        0.0049
      9 C          65.4564   91.5548   14.9485 C.ar    1  UNL1        0.0339
     10 C          64.7097   91.7779   16.2301 C.ar    1  UNL1        0.1254
     11 N          65.0938   92.9115   17.1343 N.pl3   1  UNL1       -0.3426
     12 N          63.5789   90.8675   16.6075 N.ar    1  UNL1       -0.2296
     13 C          63.1949   89.7340   15.7033 C.ar    1  UNL1        0.1008
     14 H          65.8359   93.5090   16.8866 H       1  UNL1        0.1437
     15 H          64.6036   93.0580   17.9755 H       1  UNL1        0.1437
     16 N          63.2289   84.6492   12.4885 N.am    1  UNL1       -0.2642
     17 C          62.6075   83.7961   13.5543 C.2     1  UNL1        0.2273
     18 O          61.9871   84.4365   14.7607 O.2     1  UNL1       -0.2747
     19 H          63.6360   84.2290   11.6967 H       1  UNL1        0.1567
     20 C          62.6064   82.3027   13.4139 C.3     1  UNL1        0.0853
     21 C          61.5862   81.4813   14.1451 C.3     1  UNL1        0.0099
     22 C          63.6255   81.6307   12.5423 C.3     1  UNL1        0.1124
     23 C          63.2175   81.0545   11.2188 C.3     1  UNL1        0.3982
     24 F          62.8095   80.4783    9.8954 F       1  UNL1       -0.1700
     25 F          62.7096   79.8245   11.9109 F       1  UNL1       -0.1700
     26 F          63.7254   82.2845   10.5268 F       1  UNL1       -0.1700
@<TRIPOS>BOND
     1     1     2    1
     2     2     3   ar
     3     3     4   ar
     4     4    16    1
     5    16    17   am
     6    17    18    2
     7    17    20    1
     8    20    21    1
     9    20    22    1
    10    22    23    1
    11    23    24    1
    12    23    25    1
    13    23    26    1
    14     4     5   ar
    15     5     6   ar
    16     6     7    1
    17     7     8   ar
    18     8     9   ar
    19     9    10   ar
    20    10    11    1
    21    10    12   ar
    22    12    13   ar
    23     6     2   ar
    24    13     7   ar
    25    16    19    1
    26    11    14    1
    27    11    15    1
@<TRIPOS>MOLECULE
*****
 26 27 0 0 0
SMALL
GASTEIGER

@<TRIPOS>ATOM
      1 C          61.7150   85.7691   10.9214 C.3     1  UNL1        0.0527
      2 C          62.6055   86.1424   12.0693 C.ar    1  UNL1        0.0673
      3 N          63.0901   87.5238   12.3961 N.ar    1  UNL1       -0.2283
      4 C          63.9518   87.4351   13.6208 C.ar    1  UNL1        0.1652
      5 S          63.9997   85.9989   14.0508 S.2     1  UNL1       -0.0517
      6 C          63.1676   85.1999   13.0920 C.ar    1  UNL1        0.0471
      7 C          62.9379   83.7186   13.1462 C.ar    1  UNL1        0.0265
      8 C          63.1871   82.8759   11.9306 C.ar    1  UNL1        0.0049
      9 C          62.9574   81.3946   11.9849 C.ar    1  UNL1        0.0339
     10 C          62.4786   80.7560   13.2549 C.ar    1  UNL1        0.1254
     11 N          62.2490   79.2746   13.3092 N.pl3   1  UNL1       -0.3426
     12 N          62.2295   81.5986   14.4706 N.ar    1  UNL1       -0.2296
     13 C          62.4591   83.0799   14.4162 C.ar    1  UNL1        0.1008
     14 H          62.4125   78.7216   12.5113 H       1  UNL1        0.1437
     15 H          61.9347   78.8554   14.1428 H       1  UNL1        0.1437
     16 N          64.6441   88.5814   14.2967 N.am    1  UNL1       -0.2642
     17 C          63.8666   89.8045   14.6832 C.2     1  UNL1        0.2273
     18 O          62.3967   89.8813   14.3938 O.2     1  UNL1       -0.2747
     19 H          65.6088   88.5309   14.4866 H       1  UNL1        0.1567
     20 C          64.5588   90.9507   15.3591 C.3     1  UNL1        0.0853
     21 C          63.8786   91.6838   16.4771 C.3     1  UNL1        0.0099
     22 C          65.9313   91.3639   14.9170 C.3     1  UNL1        0.1124
     23 C          66.2281   92.8087   14.6443 C.3     1  UNL1        0.3982
     24 F          66.5250   94.2535   14.3716 F       1  UNL1       -0.1700
     25 F          66.9302   92.9139   15.9657 F       1  UNL1       -0.1700
     26 F          65.5261   92.7036   13.3229 F       1  UNL1       -0.1700
@<TRIPOS>BOND
     1     1     2    1
     2     2     3   ar
     3     3     4   ar
     4     4    16    1
     5    16    17   am
     6    17    18    2
     7    17    20    1
     8    20    21    1
     9    20    22    1
    10    22    23    1
    11    23    24    1
    12    23    25    1
    13    23    26    1
    14     4     5   ar
    15     5     6   ar
    16     6     7    1
    17     7     8   ar
    18     8     9   ar
    19     9    10   ar
    20    10    11    1
    21    10    12   ar
    22    12    13   ar
    23     6     2   ar
    24    13     7   ar
    25    16    19    1
    26    11    14    1
    27    11    15    1
@<TRIPOS>MOLECULE
*****
 26 27 0 0 0
SMALL
GASTEIGER

@<TRIPOS>ATOM
      1 C          59.9507   89.7260    9.0863 C.3     1  UNL1        0.0527
      2 C          60.9216   89.2206   10.1118 C.ar    1  UNL1        0.0673
      3 N          61.3328   89.9358   11.3646 N.ar    1  UNL1       -0.2283
      4 C          62.3172   89.0685   12.0917 C.ar    1  UNL1        0.1652
      5 S          62.5144   87.8172   11.2884 S.2     1  UNL1       -0.0517
      6 C          61.6519   87.9112   10.0647 C.ar    1  UNL1        0.0471
      7 C          61.5395   86.8773    8.9838 C.ar    1  UNL1        0.0265
      8 C          62.7416   86.0721    8.5881 C.ar    1  UNL1        0.0049
      9 C          62.6291   85.0383    7.5071 C.ar    1  UNL1        0.0339
     10 C          61.3145   84.8096    6.8219 C.ar    1  UNL1        0.1254
     11 N          61.2020   83.7756    5.7410 N.pl3   1  UNL1       -0.3426
     12 N          60.1124   85.6147    7.2176 N.ar    1  UNL1       -0.2296
     13 C          60.2249   86.6486    8.2985 C.ar    1  UNL1        0.1008
     14 H          61.9910   83.2472    5.4812 H       1  UNL1        0.1437
     15 H          60.3392   83.6255    5.2912 H       1  UNL1        0.1437
     16 N          62.9868   89.3951   13.3936 N.am    1  UNL1       -0.2642
     17 C          63.9677   90.5274   13.4692 C.2     1  UNL1        0.2273
     18 O          64.2790   91.3331   12.2427 O.2     1  UNL1       -0.2747
     19 H          62.7825   88.8663   14.1985 H       1  UNL1        0.1567
     20 C          64.6373   90.8541   14.7711 C.3     1  UNL1        0.0853
     21 C          63.8539   90.8087   16.0495 C.3     1  UNL1        0.0099
     22 C          66.0903   91.2260   14.7945 C.3     1  UNL1        0.1124
     23 C          66.4961   92.6689   14.7366 C.3     1  UNL1        0.3982
     24 F          66.9019   94.1118   14.6787 F       1  UNL1       -0.1700
     25 F          66.8645   92.5073   13.2916 F       1  UNL1       -0.1700
     26 F          66.1276   92.8305   16.1816 F       1  UNL1       -0.1700
@<TRIPOS>BOND
     1     1     2    1
     2     2     3   ar
     3     3     4   ar
     4     4    16    1
     5    16    17   am
     6    17    18    2
     7    17    20    1
     8    20    21    1
     9    20    22    1
    10    22    23    1
    11    23    24    1
    12    23    25    1
    13    23    26    1
    14     4     5   ar
    15     5     6   ar
    16     6     7    1
    17     7     8   ar
    18     8     9   ar
    19     9    10   ar
    20    10    11    1
    21    10    12   ar
    22    12    13   ar
    23     6     2   ar
    24    13     7   ar
    25    16    19    1
    26    11    14    1
    27    11    15    1
@<TRIPOS>MOLECULE
*****
 26 27 0 0 0
SMALL
GASTEIGER

@<TRIPOS>ATOM
      1 C          59.4009   88.7010   11.8273 C.3     1  UNL1        0.0527
      2 C          60.7672   89.2601   11.5621 C.ar    1  UNL1        0.0673
      3 N          61.4400   90.3509   12.3417 N.ar    1  UNL1       -0.2283
      4 C          62.7893   90.5917   11.7322 C.ar    1  UNL1        0.1652
      5 S          62.9505   89.6497   10.5761 S.2     1  UNL1       -0.0517
      6 C          61.7007   88.8268   10.4709 C.ar    1  UNL1        0.0471
      7 C          61.4318   87.7581    9.4532 C.ar    1  UNL1        0.0265
      8 C          62.4245   86.6529    9.2459 C.ar    1  UNL1        0.0049
      9 C          62.1556   85.5843    8.2283 C.ar    1  UNL1        0.0339
     10 C          60.8938   85.6209    7.4179 C.ar    1  UNL1        0.1254
     11 N          60.6249   84.5522    6.4002 N.pl3   1  UNL1       -0.3426
     12 N          59.9011   86.7261    7.6252 N.ar    1  UNL1       -0.2296
     13 C          60.1701   87.7947    8.6428 C.ar    1  UNL1        0.1008
     14 H          61.2765   83.8269    6.2641 H       1  UNL1        0.1437
     15 H          59.7968   84.5762    5.8683 H       1  UNL1        0.1437
     16 N          63.8000   91.5977   12.1973 N.am    1  UNL1       -0.2642
     17 C          64.7057   91.2740   13.3484 C.2     1  UNL1        0.2273
     18 O          64.6007   89.9441   14.0344 O.2     1  UNL1       -0.2747
     19 H          63.8690   92.4705   11.7471 H       1  UNL1        0.1567
     20 C          65.7164   92.2800   13.8135 C.3     1  UNL1        0.0853
     21 C          66.3334   93.2321   12.8322 C.3     1  UNL1        0.0099
     22 C          66.1101   92.3340   15.2599 C.3     1  UNL1        0.1124
     23 C          67.5548   92.2249   15.6485 C.3     1  UNL1        0.3982
     24 F          68.9994   92.1158   16.0371 F       1  UNL1       -0.1700
     25 F          67.4541   93.5260   16.3880 F       1  UNL1       -0.1700
     26 F          67.6555   90.9238   14.9090 F       1  UNL1       -0.1700
@<TRIPOS>BOND
     1     1     2    1
     2     2     3   ar
     3     3     4   ar
     4     4    16    1
     5    16    17   am
     6    17    18    2
     7    17    20    1
     8    20    21    1
     9    20    22    1
    10    22    23    1
    11    23    24    1
    12    23    25    1
    13    23    26    1
    14     4     5   ar
    15     5     6   ar
    16     6     7    1
    17     7     8   ar
    18     8     9   ar
    19     9    10   ar
    20    10    11    1
    21    10    12   ar
    22    12    13   ar
    23     6     2   ar
    24    13     7   ar
    25    16    19    1
    26    11    14    1
    27    11    15    1
@<TRIPOS>MOLECULE
*****
 26 27 0 0 0
SMALL
GASTEIGER

@<TRIPOS>ATOM
      1 C          60.5454   88.8150    9.8343 C.3     1  UNL1        0.0527
      2 C          61.3107   87.7891   10.6165 C.ar    1  UNL1        0.0673
      3 N          60.9857   86.3276   10.7083 N.ar    1  UNL1       -0.2283
      4 C          62.0095   85.6798   11.5928 C.ar    1  UNL1        0.1652
      5 S          62.9671   86.7409   12.0476 S.2     1  UNL1       -0.0517
      6 C          62.5352   88.0446   11.4442 C.ar    1  UNL1        0.0471
      7 C          63.2096   89.3708   11.6351 C.ar    1  UNL1        0.0265
      8 C          63.7742   89.7391   12.9750 C.ar    1  UNL1        0.0049
      9 C          64.4486   91.0653   13.1659 C.ar    1  UNL1        0.0339
     10 C          64.5582   92.0232   12.0168 C.ar    1  UNL1        0.1254
     11 N          65.2326   93.3495   12.2077 N.pl3   1  UNL1       -0.3426
     12 N          63.9936   91.6549   10.6768 N.ar    1  UNL1       -0.2296
     13 C          63.3193   90.3287   10.4860 C.ar    1  UNL1        0.1008
     14 H          65.6032   93.5912   13.0871 H       1  UNL1        0.1437
     15 H          65.3046   93.9782   11.4535 H       1  UNL1        0.1437
     16 N          62.0657   84.2261   11.9582 N.am    1  UNL1       -0.2642
     17 C          63.0158   83.3098   11.2457 C.2     1  UNL1        0.2273
     18 O          63.9097   83.8473   10.1676 O.2     1  UNL1       -0.2747
     19 H          61.4790   83.8734   12.6658 H       1  UNL1        0.1567
     20 C          63.0720   81.8561   11.6111 C.3     1  UNL1        0.0853
     21 C          63.1126   80.8130   10.5340 C.3     1  UNL1        0.0099
     22 C          63.0875   81.4455   13.0538 C.3     1  UNL1        0.1124
     23 C          61.8141   81.0307   13.7292 C.3     1  UNL1        0.3982
     24 F          60.5407   80.6158   14.4046 F       1  UNL1       -0.1700
     25 F          61.6905   82.3971   14.3354 F       1  UNL1       -0.1700
     26 F          61.9377   79.6642   13.1230 F       1  UNL1       -0.1700
@<TRIPOS>BOND
     1     1     2    1
     2     2     3   ar
     3     3     4   ar
     4     4    16    1
     5    16    17   am
     6    17    18    2
     7    17    20    1
     8    20    21    1
     9    20    22    1
    10    22    23    1
    11    23    24    1
    12    23    25    1
    13    23    26    1
    14     4     5   ar
    15     5     6   ar
    16     6     7    1
    17     7     8   ar
    18     8     9   ar
    19     9    10   ar
    20    10    11    1
    21    10    12   ar
    22    12    13   ar
    23     6     2   ar
    24    13     7   ar
    25    16    19    1
    26    11    14    1
    27    11    15    1
@<TRIPOS>MOLECULE
*****
 26 27 0 0 0
SMALL
GASTEIGER

@<TRIPOS>ATOM
      1 C          59.8992   89.5582    8.6872 C.3     1  UNL1        0.0527
      2 C          60.8535   89.0817    9.7418 C.ar    1  UNL1        0.0673
      3 N          61.2457   89.8321   10.9799 N.ar    1  UNL1       -0.2283
      4 C          62.2178   88.9854   11.7468 C.ar    1  UNL1        0.1652
      5 S          62.4264   87.7117   10.9825 S.2     1  UNL1       -0.0517
      6 C          61.5833   87.7712    9.7433 C.ar    1  UNL1        0.0471
      7 C          61.4868   86.7070    8.6906 C.ar    1  UNL1        0.0265
      8 C          62.6907   85.8809    8.3467 C.ar    1  UNL1        0.0049
      9 C          62.5942   84.8168    7.2940 C.ar    1  UNL1        0.0339
     10 C          61.2938   84.5787    6.5851 C.ar    1  UNL1        0.1254
     11 N          61.1974   83.5145    5.5324 N.pl3   1  UNL1       -0.3426
     12 N          60.0900   85.4048    6.9290 N.ar    1  UNL1       -0.2296
     13 C          60.1865   86.4689    7.9817 C.ar    1  UNL1        0.1008
     14 H          61.9875   82.9723    5.3067 H       1  UNL1        0.1437
     15 H          60.3439   83.3583    5.0671 H       1  UNL1        0.1437
     16 N          62.8673   89.3486   13.0492 N.am    1  UNL1       -0.2642
     17 C          63.8571   90.4742   13.1055 C.2     1  UNL1        0.2273
     18 O          64.1975   91.2367   11.8593 O.2     1  UNL1       -0.2747
     19 H          62.6438   88.8482   13.8671 H       1  UNL1        0.1567
     20 C          64.5065   90.8374   14.4079 C.3     1  UNL1        0.0853
     21 C          65.8240   91.5545   14.4148 C.3     1  UNL1        0.0099
     22 C          63.8384   90.4836   15.7035 C.3     1  UNL1        0.1124
     23 C          63.6272   89.0445   16.0698 C.3     1  UNL1        0.3982
     24 F          63.4159   87.6053   16.4361 F       1  UNL1       -0.1700
     25 F          64.8105   88.6578   15.2331 F       1  UNL1       -0.1700
     26 F          62.4438   89.4312   16.9065 F       1  UNL1       -0.1700
@<TRIPOS>BOND
     1     1     2    1
     2     2     3   ar
     3     3     4   ar
     4     4    16    1
     5    16    17   am
     6    17    18    2
     7    17    20    1
     8    20    21    1
     9    20    22    1
    10    22    23    1
    11    23    24    1
    12    23    25    1
    13    23    26    1
    14     4     5   ar
    15     5     6   ar
    16     6     7    1
    17     7     8   ar
    18     8     9   ar
    19     9    10   ar
    20    10    11    1
    21    10    12   ar
    22    12    13   ar
    23     6     2   ar
    24    13     7   ar
    25    16    19    1
    26    11    14    1
    27    11    15    1
