@<TRIPOS>MOLECULE
*****
 33 38 0 0 0
SMALL
GASTEIGER

@<TRIPOS>ATOM
      1 N          64.8668   91.2745   14.0381 N.3     1  UNL1       -0.2695
      2 C          64.8758   89.9394   14.7220 C.3     1  UNL1        0.0938
      3 C          64.2214   88.7581   14.0693 C.3     1  UNL1        0.1081
      4 N          63.5580   88.9117   12.7328 N.pl3   1  UNL1       -0.3046
      5 C          63.5489   90.2466   12.0490 C.3     1  UNL1        0.1081
      6 C          64.2034   91.4281   12.7016 C.3     1  UNL1        0.0938
      7 C          62.9035   87.7303   12.0802 C.ar    1  UNL1        0.0493
      8 C          63.1792   86.3455   12.5866 C.ar    1  UNL1        0.0146
      9 C          62.5248   85.1641   11.9340 C.ar    1  UNL1        0.0028
     10 C          61.5946   85.3674   10.7749 C.ar    1  UNL1        0.0192
     11 C          61.3189   86.7521   10.2685 C.ar    1  UNL1        0.0821
     12 N          60.3887   86.9554    9.1094 N.ar    1  UNL1       -0.2496
     13 C          60.1130   88.3402    8.6030 C.ar    1  UNL1        0.0593
     14 C          59.1828   88.5436    7.4439 C.3     1  UNL1        0.0521
     15 C          60.7674   89.5216    9.2556 C.ar    1  UNL1        0.0148
     16 C          61.6976   89.3183   10.4147 C.ar    1  UNL1        0.0039
     17 C          61.9733   87.9336   10.9211 C.ar    1  UNL1        0.0310
     18 C          65.5213   92.4559   14.6908 C.3     1  UNL1        0.0770
     19 C          66.8769   92.9087   14.2356 C.3     1  UNL1        0.0468
     20 C          66.1377   96.8118    6.1201 C.3     1  UNL1        0.0538
     21 C          66.1910   96.2568    7.5126 C.ar    1  UNL1        0.0783
     22 C          66.9011   95.0054    7.9365 C.ar    1  UNL1        0.0960
     23 N          66.6925   94.8310    9.4116 N.ar    1  UNL1       -0.2868
     24 C          65.8534   95.9747    9.8994 C.ar    1  UNL1        0.1686
     25 N          65.5434   96.8559    8.7258 N.ar    1  UNL1       -0.2311
     26 C          65.4799   96.0659   11.3494 C.3     1  UNL1        0.2688
     27 O          65.9456   95.0135   12.3115 O.3     1  UNL1       -0.4662
     28 C          66.7847   93.8698   11.8236 C.ar    1  UNL1        0.1512
     29 C          67.2504   92.8174   12.7856 C.ar    1  UNL1        0.0146
     30 C          68.0895   91.6738   12.2978 C.ar    1  UNL1       -0.0011
     31 C          68.4629   91.5826   10.8480 C.ar    1  UNL1        0.0014
     32 C          67.9973   92.6350    9.8859 C.ar    1  UNL1        0.0206
     33 C          67.1582   93.7786   10.3737 C.ar    1  UNL1        0.0989
@<TRIPOS>BOND
     1    20    21    1
     2    21    22   ar
     3    22    23   ar
     4    23    24   ar
     5    24    25   ar
     6    24    26    1
     7    26    27    1
     8    27    28    1
     9    28    29   ar
    10    29    19    1
    11    19    18    1
    12    18     1    1
    13     1     2    1
    14     2     3    1
    15     3     4    1
    16     4     7    1
    17     7     8   ar
    18     8     9   ar
    19     9    10   ar
    20    10    11   ar
    21    11    12   ar
    22    12    13   ar
    23    13    14    1
    24    13    15   ar
    25    15    16   ar
    26    16    17   ar
    27     4     5    1
    28     5     6    1
    29    29    30   ar
    30    30    31   ar
    31    31    32   ar
    32    32    33   ar
    33    25    21   ar
    34    33    28   ar
    35    33    23    1
    36     6     1    1
    37    17     7   ar
    38    17    11   ar
@<TRIPOS>MOLECULE
*****
 33 38 0 0 0
SMALL
GASTEIGER

@<TRIPOS>ATOM
      1 N          63.4920   87.1391   15.8313 N.3     1  UNL1       -0.2695
      2 C          64.2954   87.0269   14.5694 C.3     1  UNL1        0.0938
      3 C          64.7275   88.2660   13.8429 C.3     1  UNL1        0.1081
      4 N          64.3564   89.6172   14.3781 N.pl3   1  UNL1       -0.3046
      5 C          63.5531   89.7294   15.6398 C.3     1  UNL1        0.1081
      6 C          63.1209   88.4903   16.3665 C.3     1  UNL1        0.0938
      7 C          64.7886   90.8563   13.6515 C.ar    1  UNL1        0.0493
      8 C          64.1562   91.2155   12.3396 C.ar    1  UNL1        0.0146
      9 C          64.5883   92.4546   11.6131 C.ar    1  UNL1        0.0028
     10 C          65.6529   93.3345   12.1984 C.ar    1  UNL1        0.0192
     11 C          66.2853   92.9753   13.5102 C.ar    1  UNL1        0.0821
     12 N          67.3498   93.8551   14.0955 N.ar    1  UNL1       -0.2496
     13 C          67.9822   93.4958   15.4074 C.ar    1  UNL1        0.0593
     14 C          69.0468   94.3757   15.9928 C.3     1  UNL1        0.0521
     15 C          67.5501   92.2568   16.1340 C.ar    1  UNL1        0.0148
     16 C          66.4855   91.3769   15.5487 C.ar    1  UNL1        0.0039
     17 C          65.8531   91.7361   14.2368 C.ar    1  UNL1        0.0310
     18 C          63.0599   85.9000   16.5578 C.3     1  UNL1        0.0770
     19 C          62.2886   84.8365   15.8338 C.3     1  UNL1        0.0468
     20 C          62.9895   84.8015    6.8255 C.3     1  UNL1        0.0538
     21 C          62.7993   84.9070    8.3097 C.ar    1  UNL1        0.0783
     22 C          63.4013   84.0009    9.3423 C.ar    1  UNL1        0.0960
     23 N          62.9477   84.4710   10.6926 N.ar    1  UNL1       -0.2868
     24 C          62.0653   85.6677   10.4944 C.ar    1  UNL1        0.1686
     25 N          61.9736   85.9372    9.0217 N.ar    1  UNL1       -0.2311
     26 C          61.4594   86.3575   11.6806 C.3     1  UNL1        0.2688
     27 O          61.7358   85.8505   13.0650 O.3     1  UNL1       -0.4662
     28 C          62.6182   84.6537   13.2632 C.ar    1  UNL1        0.1512
     29 C          62.8946   84.1468   14.6476 C.ar    1  UNL1        0.0146
     30 C          63.7769   82.9501   14.8458 C.ar    1  UNL1       -0.0011
     31 C          64.3829   82.2603   13.6596 C.ar    1  UNL1        0.0014
     32 C          64.1065   82.7673   12.2752 C.ar    1  UNL1        0.0206
     33 C          63.2241   83.9640   12.0770 C.ar    1  UNL1        0.0989
@<TRIPOS>BOND
     1    20    21    1
     2    21    22   ar
     3    22    23   ar
     4    23    24   ar
     5    24    25   ar
     6    24    26    1
     7    26    27    1
     8    27    28    1
     9    28    29   ar
    10    29    19    1
    11    19    18    1
    12    18     1    1
    13     1     2    1
    14     2     3    1
    15     3     4    1
    16     4     7    1
    17     7     8   ar
    18     8     9   ar
    19     9    10   ar
    20    10    11   ar
    21    11    12   ar
    22    12    13   ar
    23    13    14    1
    24    13    15   ar
    25    15    16   ar
    26    16    17   ar
    27     4     5    1
    28     5     6    1
    29    29    30   ar
    30    30    31   ar
    31    31    32   ar
    32    32    33   ar
    33    25    21   ar
    34    33    28   ar
    35    33    23    1
    36     6     1    1
    37    17     7   ar
    38    17    11   ar
@<TRIPOS>MOLECULE
*****
 33 38 0 0 0
SMALL
GASTEIGER

@<TRIPOS>ATOM
      1 N          64.7866   91.2508   13.9919 N.3     1  UNL1       -0.2695
      2 C          64.6566   89.8547   14.5250 C.3     1  UNL1        0.0938
      3 C          63.9498   88.8065   13.7178 C.3     1  UNL1        0.1081
      4 N          63.3729   89.1543   12.3776 N.pl3   1  UNL1       -0.3046
      5 C          63.5029   90.5503   11.8445 C.3     1  UNL1        0.1081
      6 C          64.2098   91.5986   12.6517 C.3     1  UNL1        0.0938
      7 C          62.6661   88.1060   11.5704 C.ar    1  UNL1        0.0493
      8 C          61.8628   88.5013   10.3668 C.ar    1  UNL1        0.0146
      9 C          61.1559   87.4531    9.5596 C.ar    1  UNL1        0.0028
     10 C          61.2524   86.0096    9.9560 C.ar    1  UNL1        0.0192
     11 C          62.0557   85.6143   11.1595 C.ar    1  UNL1        0.0821
     12 N          62.1521   84.1708   11.5558 N.ar    1  UNL1       -0.2496
     13 C          62.9555   83.7756   12.7594 C.ar    1  UNL1        0.0593
     14 C          63.0519   82.3321   13.1557 C.3     1  UNL1        0.0521
     15 C          63.6623   84.8238   13.5665 C.ar    1  UNL1        0.0148
     16 C          63.5659   86.2673   13.1702 C.ar    1  UNL1        0.0039
     17 C          62.7626   86.6626   11.9667 C.ar    1  UNL1        0.0310
     18 C          65.4934   92.2990   14.7991 C.3     1  UNL1        0.0770
     19 C          66.8335   92.8084   14.3579 C.3     1  UNL1        0.0468
     20 C          66.2156   96.8434    6.2968 C.3     1  UNL1        0.0538
     21 C          66.2488   96.2662    7.6810 C.ar    1  UNL1        0.0783
     22 C          66.9459   95.0037    8.0934 C.ar    1  UNL1        0.0960
     23 N          66.7186   94.8075    9.5630 N.ar    1  UNL1       -0.2868
     24 C          65.8811   95.9488   10.0589 C.ar    1  UNL1        0.1686
     25 N          65.5907   96.8503    8.8958 N.ar    1  UNL1       -0.2311
     26 C          65.4910   96.0197   11.5056 C.3     1  UNL1        0.2688
     27 O          65.9385   94.9493   12.4564 O.3     1  UNL1       -0.4662
     28 C          66.7761   93.8079   11.9604 C.ar    1  UNL1        0.1512
     29 C          67.2236   92.7375   12.9111 C.ar    1  UNL1        0.0146
     30 C          68.0612   91.5963   12.4153 C.ar    1  UNL1       -0.0011
     31 C          68.4512   91.5254   10.9686 C.ar    1  UNL1        0.0014
     32 C          68.0037   92.5959   10.0179 C.ar    1  UNL1        0.0206
     33 C          67.1662   93.7371   10.5138 C.ar    1  UNL1        0.0989
@<TRIPOS>BOND
     1    20    21    1
     2    21    22   ar
     3    22    23   ar
     4    23    24   ar
     5    24    25   ar
     6    24    26    1
     7    26    27    1
     8    27    28    1
     9    28    29   ar
    10    29    19    1
    11    19    18    1
    12    18     1    1
    13     1     2    1
    14     2     3    1
    15     3     4    1
    16     4     7    1
    17     7     8   ar
    18     8     9   ar
    19     9    10   ar
    20    10    11   ar
    21    11    12   ar
    22    12    13   ar
    23    13    14    1
    24    13    15   ar
    25    15    16   ar
    26    16    17   ar
    27     4     5    1
    28     5     6    1
    29    29    30   ar
    30    30    31   ar
    31    31    32   ar
    32    32    33   ar
    33    25    21   ar
    34    33    28   ar
    35    33    23    1
    36     6     1    1
    37    17     7   ar
    38    17    11   ar
@<TRIPOS>MOLECULE
*****
 33 38 0 0 0
SMALL
GASTEIGER

@<TRIPOS>ATOM
      1 N          62.3815   88.1406   11.2293 N.3     1  UNL1       -0.2695
      2 C          63.2562   87.9008   12.4241 C.3     1  UNL1        0.0938
      3 C          63.3084   86.5407   13.0545 C.3     1  UNL1        0.1081
      4 N          62.4860   85.4204   12.4902 N.pl3   1  UNL1       -0.3046
      5 C          61.6113   85.6601   11.2955 C.3     1  UNL1        0.1081
      6 C          61.5591   87.0202   10.6650 C.3     1  UNL1        0.0938
      7 C          62.5382   84.0604   13.1207 C.ar    1  UNL1        0.0493
      8 C          62.4315   83.9196   14.6103 C.ar    1  UNL1        0.0146
      9 C          62.4837   82.5595   15.2407 C.ar    1  UNL1        0.0028
     10 C          62.6427   81.3402   14.3816 C.ar    1  UNL1        0.0192
     11 C          62.7494   81.4810   12.8921 C.ar    1  UNL1        0.0821
     12 N          62.9084   80.2617   12.0330 N.ar    1  UNL1       -0.2496
     13 C          63.0151   80.4025   10.5434 C.ar    1  UNL1        0.0593
     14 C          63.1741   79.1832    9.6843 C.3     1  UNL1        0.0521
     15 C          62.9629   81.7625    9.9129 C.ar    1  UNL1        0.0148
     16 C          62.8039   82.9818   10.7720 C.ar    1  UNL1        0.0039
     17 C          62.6972   82.8411   12.2616 C.ar    1  UNL1        0.0310
     18 C          62.3293   89.5006   10.5988 C.3     1  UNL1        0.0770
     19 C          62.4552   90.7280   11.4518 C.3     1  UNL1        0.0468
     20 C          69.1248   94.0195   16.5826 C.3     1  UNL1        0.0538
     21 C          67.9675   93.4264   15.8349 C.ar    1  UNL1        0.0783
     22 C          67.7366   93.5123   14.3553 C.ar    1  UNL1        0.0960
     23 N          66.4643   92.7824   14.0416 N.ar    1  UNL1       -0.2868
     24 C          65.9089   92.2454   15.3274 C.ar    1  UNL1        0.1686
     25 N          66.8379   92.6435   16.4357 N.ar    1  UNL1       -0.2311
     26 C          64.6289   91.4633   15.3228 C.3     1  UNL1        0.2688
     27 O          63.9043   91.2182   14.0325 O.3     1  UNL1       -0.4662
     28 C          64.4598   91.7552   12.7467 C.ar    1  UNL1        0.1512
     29 C          63.7352   91.5101   11.4564 C.ar    1  UNL1        0.0146
     30 C          64.2906   92.0471   10.1706 C.ar    1  UNL1       -0.0011
     31 C          65.5706   92.8291   10.1752 C.ar    1  UNL1        0.0014
     32 C          66.2951   93.0742   11.4656 C.ar    1  UNL1        0.0206
     33 C          65.7397   92.5373   12.7513 C.ar    1  UNL1        0.0989
@<TRIPOS>BOND
     1    20    21    1
     2    21    22   ar
     3    22    23   ar
     4    23    24   ar
     5    24    25   ar
     6    24    26    1
     7    26    27    1
     8    27    28    1
     9    28    29   ar
    10    29    19    1
    11    19    18    1
    12    18     1    1
    13     1     2    1
    14     2     3    1
    15     3     4    1
    16     4     7    1
    17     7     8   ar
    18     8     9   ar
    19     9    10   ar
    20    10    11   ar
    21    11    12   ar
    22    12    13   ar
    23    13    14    1
    24    13    15   ar
    25    15    16   ar
    26    16    17   ar
    27     4     5    1
    28     5     6    1
    29    29    30   ar
    30    30    31   ar
    31    31    32   ar
    32    32    33   ar
    33    25    21   ar
    34    33    28   ar
    35    33    23    1
    36     6     1    1
    37    17     7   ar
    38    17    11   ar
@<TRIPOS>MOLECULE
*****
 33 38 0 0 0
SMALL
GASTEIGER

@<TRIPOS>ATOM
      1 N          60.4406   88.4880    8.9796 N.3     1  UNL1       -0.2695
      2 C          60.2471   87.1128    9.5467 C.3     1  UNL1        0.0938
      3 C          61.0894   86.6514   10.6989 C.3     1  UNL1        0.1081
      4 N          62.1253   87.5650   11.2840 N.pl3   1  UNL1       -0.3046
      5 C          62.3188   88.9401   10.7169 C.3     1  UNL1        0.1081
      6 C          61.4765   89.4016    9.5647 C.3     1  UNL1        0.0938
      7 C          62.9676   87.1035   12.4361 C.ar    1  UNL1        0.0493
      8 C          63.6118   88.1087   13.3442 C.ar    1  UNL1        0.0146
      9 C          64.4542   87.6472   14.4964 C.ar    1  UNL1        0.0028
     10 C          64.6523   86.1805   14.7404 C.ar    1  UNL1        0.0192
     11 C          64.0082   85.1753   13.8324 C.ar    1  UNL1        0.0821
     12 N          64.2064   83.7086   14.0765 N.ar    1  UNL1       -0.2496
     13 C          63.5621   82.7034   13.1683 C.ar    1  UNL1        0.0593
     14 C          63.7603   81.2368   13.4124 C.3     1  UNL1        0.0521
     15 C          62.7198   83.1649   12.0162 C.ar    1  UNL1        0.0148
     16 C          62.5217   84.6316   11.7721 C.ar    1  UNL1        0.0039
     17 C          63.1658   85.6368   12.6802 C.ar    1  UNL1        0.0310
     18 C          59.5983   88.9495    7.8275 C.3     1  UNL1        0.0770
     19 C          60.2497   89.3730    6.5444 C.3     1  UNL1        0.0468
     20 C          61.4353   95.3708   -0.1087 C.3     1  UNL1        0.0538
     21 C          61.3606   94.3510    0.9889 C.ar    1  UNL1        0.0783
     22 C          60.1243   93.9516    1.7386 C.ar    1  UNL1        0.0960
     23 N          60.5086   92.9054    2.7425 N.ar    1  UNL1       -0.2868
     24 C          61.9824   92.6582    2.6131 C.ar    1  UNL1        0.1686
     25 N          62.5090   93.5516    1.5294 N.ar    1  UNL1       -0.2311
     26 C          62.6547   91.6515    3.4990 C.3     1  UNL1        0.2688
     27 O          61.8530   90.8920    4.5141 O.3     1  UNL1       -0.4662
     28 C          60.3791   91.1392    4.6434 C.ar    1  UNL1        0.1512
     29 C          59.5775   90.3797    5.6585 C.ar    1  UNL1        0.0146
     30 C          58.1037   90.6269    5.7879 C.ar    1  UNL1       -0.0011
     31 C          57.4316   91.6336    4.9021 C.ar    1  UNL1        0.0014
     32 C          58.2332   92.3931    3.8869 C.ar    1  UNL1        0.0206
     33 C          59.7070   92.1459    3.7576 C.ar    1  UNL1        0.0989
@<TRIPOS>BOND
     1    20    21    1
     2    21    22   ar
     3    22    23   ar
     4    23    24   ar
     5    24    25   ar
     6    24    26    1
     7    26    27    1
     8    27    28    1
     9    28    29   ar
    10    29    19    1
    11    19    18    1
    12    18     1    1
    13     1     2    1
    14     2     3    1
    15     3     4    1
    16     4     7    1
    17     7     8   ar
    18     8     9   ar
    19     9    10   ar
    20    10    11   ar
    21    11    12   ar
    22    12    13   ar
    23    13    14    1
    24    13    15   ar
    25    15    16   ar
    26    16    17   ar
    27     4     5    1
    28     5     6    1
    29    29    30   ar
    30    30    31   ar
    31    31    32   ar
    32    32    33   ar
    33    25    21   ar
    34    33    28   ar
    35    33    23    1
    36     6     1    1
    37    17     7   ar
    38    17    11   ar
@<TRIPOS>MOLECULE
*****
 33 38 0 0 0
SMALL
GASTEIGER

@<TRIPOS>ATOM
      1 N          59.8268   91.0536    4.9574 N.3     1  UNL1       -0.2695
      2 C          59.2568   92.1800    4.1472 C.3     1  UNL1        0.0938
      3 C          60.0990   92.8564    3.1065 C.3     1  UNL1        0.1081
      4 N          61.5112   92.4064    2.8759 N.pl3   1  UNL1       -0.3046
      5 C          62.0812   91.2800    3.6860 C.3     1  UNL1        0.1081
      6 C          61.2390   90.6035    4.7268 C.3     1  UNL1        0.0938
      7 C          62.3535   93.0828    1.8352 C.ar    1  UNL1        0.0493
      8 C          63.7402   93.5427    2.1753 C.ar    1  UNL1        0.0146
      9 C          64.5824   94.2191    1.1346 C.ar    1  UNL1        0.0028
     10 C          64.0380   94.4357   -0.2462 C.ar    1  UNL1        0.0192
     11 C          62.6513   93.9759   -0.5863 C.ar    1  UNL1        0.0821
     12 N          62.1069   94.1925   -1.9671 N.ar    1  UNL1       -0.2496
     13 C          60.7202   93.7326   -2.3072 C.ar    1  UNL1        0.0593
     14 C          60.1757   93.9493   -3.6881 C.3     1  UNL1        0.0521
     15 C          59.8779   93.0562   -1.2665 C.ar    1  UNL1        0.0148
     16 C          60.4224   92.8396    0.1143 C.ar    1  UNL1        0.0039
     17 C          61.8090   93.2994    0.4544 C.ar    1  UNL1        0.0310
     18 C          58.9846   90.3772    5.9981 C.3     1  UNL1        0.0770
     19 C          59.5224   90.1764    7.3839 C.3     1  UNL1        0.0468
     20 C          63.8800   85.3422   13.6516 C.3     1  UNL1        0.0538
     21 C          63.1986   86.2471   12.6682 C.ar    1  UNL1        0.0783
     22 C          62.3655   85.8113   11.4995 C.ar    1  UNL1        0.0960
     23 N          61.8827   87.0416   10.7900 N.ar    1  UNL1       -0.2868
     24 C          62.4175   88.2377   11.5203 C.ar    1  UNL1        0.1686
     25 N          63.2308   87.7467   12.6811 N.ar    1  UNL1       -0.2311
     26 C          62.0948   89.6195   11.0339 C.3     1  UNL1        0.2688
     27 O          61.2374   89.8051    9.8172 O.3     1  UNL1       -0.4662
     28 C          60.7026   88.6089    9.0869 C.ar    1  UNL1        0.1512
     29 C          59.8451   88.7946    7.8703 C.ar    1  UNL1        0.0146
     30 C          59.3103   87.5985    7.1400 C.ar    1  UNL1       -0.0011
     31 C          59.6330   86.2168    7.6264 C.ar    1  UNL1        0.0014
     32 C          60.4905   86.0311    8.8431 C.ar    1  UNL1        0.0206
     33 C          61.0253   87.2272    9.5734 C.ar    1  UNL1        0.0989
@<TRIPOS>BOND
     1    20    21    1
     2    21    22   ar
     3    22    23   ar
     4    23    24   ar
     5    24    25   ar
     6    24    26    1
     7    26    27    1
     8    27    28    1
     9    28    29   ar
    10    29    19    1
    11    19    18    1
    12    18     1    1
    13     1     2    1
    14     2     3    1
    15     3     4    1
    16     4     7    1
    17     7     8   ar
    18     8     9   ar
    19     9    10   ar
    20    10    11   ar
    21    11    12   ar
    22    12    13   ar
    23    13    14    1
    24    13    15   ar
    25    15    16   ar
    26    16    17   ar
    27     4     5    1
    28     5     6    1
    29    29    30   ar
    30    30    31   ar
    31    31    32   ar
    32    32    33   ar
    33    25    21   ar
    34    33    28   ar
    35    33    23    1
    36     6     1    1
    37    17     7   ar
    38    17    11   ar
@<TRIPOS>MOLECULE
*****
 33 38 0 0 0
SMALL
GASTEIGER

@<TRIPOS>ATOM
      1 N          64.0886   87.6757   14.5179 N.3     1  UNL1       -0.2695
      2 C          63.4048   87.6759   13.1828 C.3     1  UNL1        0.0938
      3 C          63.2968   86.4039   12.3953 C.3     1  UNL1        0.1081
      4 N          63.8725   85.1316   12.9429 N.pl3   1  UNL1       -0.3046
      5 C          64.5563   85.1313   14.2779 C.3     1  UNL1        0.1081
      6 C          64.6644   86.4034   15.0655 C.3     1  UNL1        0.0938
      7 C          63.7645   83.8595   12.1554 C.ar    1  UNL1        0.0493
      8 C          64.4746   83.7288   10.8405 C.ar    1  UNL1        0.0146
      9 C          64.3665   82.4568   10.0530 C.ar    1  UNL1        0.0028
     10 C          63.5484   81.3154   10.5803 C.ar    1  UNL1        0.0192
     11 C          62.8383   81.4461   11.8951 C.ar    1  UNL1        0.0821
     12 N          62.0202   80.3048   12.4223 N.ar    1  UNL1       -0.2496
     13 C          61.3101   80.4355   13.7372 C.ar    1  UNL1        0.0593
     14 C          60.4920   79.2942   14.2645 C.3     1  UNL1        0.0521
     15 C          61.4182   81.7075   14.5247 C.ar    1  UNL1        0.0148
     16 C          62.2363   82.8489   13.9974 C.ar    1  UNL1        0.0039
     17 C          62.9464   82.7182   12.6826 C.ar    1  UNL1        0.0310
     18 C          64.1967   88.9477   15.3054 C.3     1  UNL1        0.0770
     19 C          63.7607   90.2469   14.6953 C.3     1  UNL1        0.0468
     20 C          67.5570   96.0183    8.8710 C.3     1  UNL1        0.0538
     21 C          66.8611   95.0148    9.7423 C.ar    1  UNL1        0.0783
     22 C          67.0686   94.8329   11.2166 C.ar    1  UNL1        0.0960
     23 N          66.1713   93.7228   11.6776 N.ar    1  UNL1       -0.2868
     24 C          65.4092   93.2187   10.4881 C.ar    1  UNL1        0.1686
     25 N          65.8354   94.0172    9.2920 N.ar    1  UNL1       -0.2311
     26 C          64.4254   92.0976   10.6477 C.3     1  UNL1        0.2688
     27 O          64.2039   91.4807   11.9969 O.3     1  UNL1       -0.4662
     28 C          64.9661   91.9849   13.1865 C.ar    1  UNL1        0.1512
     29 C          64.7445   91.3680   14.5357 C.ar    1  UNL1        0.0146
     30 C          65.5066   91.8721   15.7252 C.ar    1  UNL1       -0.0011
     31 C          66.4903   92.9932   15.5655 C.ar    1  UNL1        0.0014
     32 C          66.7119   93.6101   14.2163 C.ar    1  UNL1        0.0206
     33 C          65.9497   93.1059   13.0268 C.ar    1  UNL1        0.0989
@<TRIPOS>BOND
     1    20    21    1
     2    21    22   ar
     3    22    23   ar
     4    23    24   ar
     5    24    25   ar
     6    24    26    1
     7    26    27    1
     8    27    28    1
     9    28    29   ar
    10    29    19    1
    11    19    18    1
    12    18     1    1
    13     1     2    1
    14     2     3    1
    15     3     4    1
    16     4     7    1
    17     7     8   ar
    18     8     9   ar
    19     9    10   ar
    20    10    11   ar
    21    11    12   ar
    22    12    13   ar
    23    13    14    1
    24    13    15   ar
    25    15    16   ar
    26    16    17   ar
    27     4     5    1
    28     5     6    1
    29    29    30   ar
    30    30    31   ar
    31    31    32   ar
    32    32    33   ar
    33    25    21   ar
    34    33    28   ar
    35    33    23    1
    36     6     1    1
    37    17     7   ar
    38    17    11   ar
@<TRIPOS>MOLECULE
*****
 33 38 0 0 0
SMALL
GASTEIGER

@<TRIPOS>ATOM
      1 N          63.3653   87.7824   16.2058 N.3     1  UNL1       -0.2695
      2 C          62.7393   86.4880   16.6334 C.3     1  UNL1        0.0938
      3 C          62.8290   85.2822   15.7457 C.3     1  UNL1        0.1081
      4 N          63.5447   85.3707   14.4305 N.pl3   1  UNL1       -0.3046
      5 C          64.1707   86.6650   14.0028 C.3     1  UNL1        0.1081
      6 C          64.0810   87.8708   14.8905 C.3     1  UNL1        0.0938
      7 C          63.6344   84.1649   13.5428 C.ar    1  UNL1        0.0493
      8 C          63.9644   82.8244   14.1296 C.ar    1  UNL1        0.0146
      9 C          64.0540   81.6186   13.2420 C.ar    1  UNL1        0.0028
     10 C          63.8137   81.7532   11.7675 C.ar    1  UNL1        0.0192
     11 C          63.4837   83.0936   11.1807 C.ar    1  UNL1        0.0821
     12 N          63.2434   83.2282    9.7062 N.ar    1  UNL1       -0.2496
     13 C          62.9134   84.5687    9.1193 C.ar    1  UNL1        0.0593
     14 C          62.6731   84.7032    7.6448 C.3     1  UNL1        0.0521
     15 C          62.8237   85.7744   10.0070 C.ar    1  UNL1        0.0148
     16 C          63.0640   85.6399   11.4815 C.ar    1  UNL1        0.0039
     17 C          63.3940   84.2995   12.0683 C.ar    1  UNL1        0.0310
     18 C          63.2757   88.9882   17.0934 C.3     1  UNL1        0.0770
     19 C          62.9911   90.3364   16.5007 C.3     1  UNL1        0.0468
     20 C          67.1313   93.7799    9.2450 C.3     1  UNL1        0.0538
     21 C          66.3640   93.1531   10.3714 C.ar    1  UNL1        0.0783
     22 C          66.6662   93.3003   11.8333 C.ar    1  UNL1        0.0960
     23 N          65.6489   92.5074   12.5990 N.ar    1  UNL1       -0.2868
     24 C          64.7180   91.8701   11.6103 C.ar    1  UNL1        0.1686
     25 N          65.1600   92.2692   10.2336 N.ar    1  UNL1       -0.2311
     26 C          63.5881   91.0087   12.0914 C.3     1  UNL1        0.2688
     27 O          63.3891   90.7846   13.5612 O.3     1  UNL1       -0.4662
     28 C          64.3200   91.4219   14.5498 C.ar    1  UNL1        0.1512
     29 C          64.1210   91.1978   16.0196 C.ar    1  UNL1        0.0146
     30 C          65.0518   91.8350   17.0082 C.ar    1  UNL1       -0.0011
     31 C          66.1817   92.6964   16.5271 C.ar    1  UNL1        0.0014
     32 C          66.3807   92.9205   15.0574 C.ar    1  UNL1        0.0206
     33 C          65.4498   92.2832   14.0687 C.ar    1  UNL1        0.0989
@<TRIPOS>BOND
     1    20    21    1
     2    21    22   ar
     3    22    23   ar
     4    23    24   ar
     5    24    25   ar
     6    24    26    1
     7    26    27    1
     8    27    28    1
     9    28    29   ar
    10    29    19    1
    11    19    18    1
    12    18     1    1
    13     1     2    1
    14     2     3    1
    15     3     4    1
    16     4     7    1
    17     7     8   ar
    18     8     9   ar
    19     9    10   ar
    20    10    11   ar
    21    11    12   ar
    22    12    13   ar
    23    13    14    1
    24    13    15   ar
    25    15    16   ar
    26    16    17   ar
    27     4     5    1
    28     5     6    1
    29    29    30   ar
    30    30    31   ar
    31    31    32   ar
    32    32    33   ar
    33    25    21   ar
    34    33    28   ar
    35    33    23    1
    36     6     1    1
    37    17     7   ar
    38    17    11   ar
@<TRIPOS>MOLECULE
*****
 33 38 0 0 0
SMALL
GASTEIGER

@<TRIPOS>ATOM
      1 N          64.0429   87.6472   14.2648 N.3     1  UNL1       -0.2695
      2 C          63.3029   87.5603   12.9629 C.3     1  UNL1        0.0938
      3 C          63.1895   86.2449   12.2510 C.3     1  UNL1        0.1081
      4 N          63.8161   85.0163   12.8410 N.pl3   1  UNL1       -0.3046
      5 C          64.5561   85.1032   14.1428 C.3     1  UNL1        0.1081
      6 C          64.6695   86.4186   14.8548 C.3     1  UNL1        0.0938
      7 C          63.7028   83.7009   12.1291 C.ar    1  UNL1        0.0493
      8 C          64.4514   83.4738   10.8492 C.ar    1  UNL1        0.0146
      9 C          64.3380   82.1584   10.1373 C.ar    1  UNL1        0.0028
     10 C          63.4761   81.0701   10.7053 C.ar    1  UNL1        0.0192
     11 C          62.7275   81.2971   11.9851 C.ar    1  UNL1        0.0821
     12 N          61.8655   80.2088   12.5531 N.ar    1  UNL1       -0.2496
     13 C          61.1169   80.4359   13.8330 C.ar    1  UNL1        0.0593
     14 C          60.2550   79.3476   14.4009 C.3     1  UNL1        0.0521
     15 C          61.2303   81.7513   14.5449 C.ar    1  UNL1        0.0148
     16 C          62.0922   82.8396   13.9769 C.ar    1  UNL1        0.0039
     17 C          62.8408   82.6126   12.6971 C.ar    1  UNL1        0.0310
     18 C          64.1563   88.9626   14.9767 C.3     1  UNL1        0.0770
     19 C          63.3384   90.1347   14.5215 C.3     1  UNL1        0.0468
     20 C          67.4148   95.9484    8.9333 C.3     1  UNL1        0.0538
     21 C          66.8064   95.0319    9.9532 C.ar    1  UNL1        0.0783
     22 C          65.7626   93.9876    9.6888 C.ar    1  UNL1        0.0960
     23 N          65.4460   93.3092   10.9887 N.ar    1  UNL1       -0.2868
     24 C          66.2942   93.9342   12.0563 C.ar    1  UNL1        0.1686
     25 N          67.1349   94.9989   11.4164 N.ar    1  UNL1       -0.2311
     26 C          66.1914   93.4531   13.4734 C.3     1  UNL1        0.2688
     27 O          65.2404   92.3470   13.8227 O.3     1  UNL1       -0.4662
     28 C          64.3922   91.7220   12.7550 C.ar    1  UNL1        0.1512
     29 C          63.4412   90.6158   13.1044 C.ar    1  UNL1        0.0146
     30 C          62.5930   89.9908   12.0367 C.ar    1  UNL1       -0.0011
     31 C          62.6958   90.4719   10.6197 C.ar    1  UNL1        0.0014
     32 C          63.6468   91.5781   10.2704 C.ar    1  UNL1        0.0206
     33 C          64.4950   92.2031   11.3380 C.ar    1  UNL1        0.0989
@<TRIPOS>BOND
     1    20    21    1
     2    21    22   ar
     3    22    23   ar
     4    23    24   ar
     5    24    25   ar
     6    24    26    1
     7    26    27    1
     8    27    28    1
     9    28    29   ar
    10    29    19    1
    11    19    18    1
    12    18     1    1
    13     1     2    1
    14     2     3    1
    15     3     4    1
    16     4     7    1
    17     7     8   ar
    18     8     9   ar
    19     9    10   ar
    20    10    11   ar
    21    11    12   ar
    22    12    13   ar
    23    13    14    1
    24    13    15   ar
    25    15    16   ar
    26    16    17   ar
    27     4     5    1
    28     5     6    1
    29    29    30   ar
    30    30    31   ar
    31    31    32   ar
    32    32    33   ar
    33    25    21   ar
    34    33    28   ar
    35    33    23    1
    36     6     1    1
    37    17     7   ar
    38    17    11   ar
