@<TRIPOS>MOLECULE
*****
 30 33 0 0 0
SMALL
GASTEIGER

@<TRIPOS>ATOM
      1 C          64.0465   91.2513   13.6838 C.3     1  UNL1        0.0518
      2 C          63.8227   89.7865   13.4504 C.ar    1  UNL1        0.0563
      3 N          64.4075   88.7786   14.3950 N.ar    1  UNL1       -0.2524
      4 C          64.1837   87.3139   14.1616 C.ar    1  UNL1        0.0830
      5 C          63.3750   86.8570   12.9838 C.ar    1  UNL1        0.0686
      6 C          62.7902   87.8649   12.0392 C.ar    1  UNL1        0.0048
      7 C          63.0141   89.3297   12.2726 C.ar    1  UNL1        0.0072
      8 C          63.3234   85.3582   13.0103 C.2     1  UNL1        0.2508
      9 O          62.6187   84.4825   12.0169 O.2     1  UNL1       -0.2698
     10 N          64.1001   84.8887   14.2045 N.am    1  UNL1       -0.2646
     11 C          64.6318   86.0974   14.9161 C.3     1  UNL1        0.1400
     12 C          61.9816   87.4081   10.8613 C.ar    1  UNL1        0.0106
     13 C          62.6525   86.7068    9.7176 C.ar    1  UNL1        0.0017
     14 C          61.8440   86.2500    8.5397 C.ar    1  UNL1        0.0114
     15 C          60.3645   86.4945    8.5055 C.ar    1  UNL1        0.0585
     16 CL         59.5559   86.0377    7.3275 Cl      1  UNL1       -0.0822
     17 C          59.6935   87.1958    9.6491 C.ar    1  UNL1        0.0228
     18 C          60.5021   87.6526   10.8271 C.ar    1  UNL1        0.0585
     19 CL         59.8311   88.3539   11.9707 Cl      1  UNL1       -0.0822
     20 C          62.4292   90.3376   11.3280 C.3     1  UNL1        0.0934
     21 N          63.2014   90.7653   10.1152 N.3     1  UNL1       -0.3174
     22 H          64.0390   91.2696   10.4058 H       1  UNL1        0.1192
     23 H          62.6202   91.3745    9.5395 H       1  UNL1        0.1192
     24 C          64.3085   83.4611   14.6152 C.3     1  UNL1        0.1417
     25 C          63.3490   82.4019   14.1597 C.ar    1  UNL1        0.1002
     26 C          63.6200   81.3548   13.1205 C.ar    1  UNL1        0.0384
     27 C          62.3886   80.5096   12.9820 C.ar    1  UNL1        0.0964
     28 N          61.3564   81.0344   13.9355 N.ar    1  UNL1       -0.2476
     29 C          59.9735   80.4861   14.1275 C.3     1  UNL1        0.1537
     30 N          61.9500   82.2040   14.6634 N.ar    1  UNL1       -0.1719
@<TRIPOS>BOND
     1     1     2    1
     2     2     3   ar
     3     3     4   ar
     4     4     5   ar
     5     5     6   ar
     6     6    12    1
     7    12    13   ar
     8    13    14   ar
     9    14    15   ar
    10    15    16    1
    11    15    17   ar
    12    17    18   ar
    13    18    19    1
    14     6     7   ar
    15     7    20    1
    16    20    21    1
    17     5     8    1
    18     8     9    2
    19     8    10   am
    20    10    24    1
    21    24    25    1
    22    25    26   ar
    23    26    27   ar
    24    27    28   ar
    25    28    29    1
    26    28    30   ar
    27    10    11    1
    28     7     2   ar
    29    30    25   ar
    30    11     4    1
    31    18    12   ar
    32    21    22    1
    33    21    23    1
@<TRIPOS>MOLECULE
*****
 30 33 0 0 0
SMALL
GASTEIGER

@<TRIPOS>ATOM
      1 C          58.9500   88.2635    7.1961 C.3     1  UNL1        0.0518
      2 C          59.9220   88.2954    8.3383 C.ar    1  UNL1        0.0563
      3 N          60.2590   89.5986    9.0000 N.ar    1  UNL1       -0.2524
      4 C          61.2309   89.6306   10.1421 C.ar    1  UNL1        0.0830
      5 C          61.8658   88.3592   10.6225 C.ar    1  UNL1        0.0686
      6 C          61.5287   87.0560    9.9607 C.ar    1  UNL1        0.0048
      7 C          60.5568   87.0241    8.8186 C.ar    1  UNL1        0.0072
      8 C          62.7807   88.6995   11.7614 C.2     1  UNL1        0.2508
      9 O          63.6180   87.7286   12.5400 O.2     1  UNL1       -0.2698
     10 N          62.7113   90.1811   11.9849 N.am    1  UNL1       -0.2646
     11 C          61.7535   90.7565   10.9842 C.3     1  UNL1        0.1400
     12 C          62.1635   85.7846   10.4410 C.ar    1  UNL1        0.0106
     13 C          61.8397   85.2538   11.8060 C.ar    1  UNL1        0.0017
     14 C          62.4744   83.9824   12.2864 C.ar    1  UNL1        0.0114
     15 C          63.4330   83.2420   11.4017 C.ar    1  UNL1        0.0585
     16 CL         64.0678   81.9706   11.8820 Cl      1  UNL1       -0.0822
     17 C          63.7569   83.7728   10.0366 C.ar    1  UNL1        0.0228
     18 C          63.1221   85.0442    9.5563 C.ar    1  UNL1        0.0585
     19 CL         63.4460   85.5750    8.1913 Cl      1  UNL1       -0.0822
     20 C          60.2197   85.7208    8.1568 C.3     1  UNL1        0.0934
     21 N          60.7317   85.4252    6.7782 N.3     1  UNL1       -0.3174
     22 H          60.3064   86.0699    6.1120 H       1  UNL1        0.1192
     23 H          60.4916   84.4668    6.5246 H       1  UNL1        0.1192
     24 C          63.4670   90.9520   13.0264 C.3     1  UNL1        0.1417
     25 C          64.6824   91.7417   12.6402 C.ar    1  UNL1        0.1002
     26 C          65.8098   92.1268   13.5515 C.ar    1  UNL1        0.0384
     27 C          66.8079   92.9081   12.7494 C.ar    1  UNL1        0.0964
     28 N          66.2975   93.0058   11.3423 N.ar    1  UNL1       -0.2476
     29 C          66.9806   93.7020   10.2028 C.3     1  UNL1        0.1537
     30 N          64.9837   92.2849   11.2748 N.ar    1  UNL1       -0.1719
@<TRIPOS>BOND
     1     1     2    1
     2     2     3   ar
     3     3     4   ar
     4     4     5   ar
     5     5     6   ar
     6     6    12    1
     7    12    13   ar
     8    13    14   ar
     9    14    15   ar
    10    15    16    1
    11    15    17   ar
    12    17    18   ar
    13    18    19    1
    14     6     7   ar
    15     7    20    1
    16    20    21    1
    17     5     8    1
    18     8     9    2
    19     8    10   am
    20    10    24    1
    21    24    25    1
    22    25    26   ar
    23    26    27   ar
    24    27    28   ar
    25    28    29    1
    26    28    30   ar
    27    10    11    1
    28     7     2   ar
    29    30    25   ar
    30    11     4    1
    31    18    12   ar
    32    21    22    1
    33    21    23    1
@<TRIPOS>MOLECULE
*****
 30 33 0 0 0
SMALL
GASTEIGER

@<TRIPOS>ATOM
      1 C          66.2138   92.4004   16.7179 C.3     1  UNL1        0.0518
      2 C          65.6465   92.1447   15.3530 C.ar    1  UNL1        0.0563
      3 N          64.5499   91.1372   15.1733 N.ar    1  UNL1       -0.2524
      4 C          63.9826   90.8815   13.8085 C.ar    1  UNL1        0.0830
      5 C          64.5119   91.6332   12.6233 C.ar    1  UNL1        0.0686
      6 C          65.6086   92.6408   12.8030 C.ar    1  UNL1        0.0048
      7 C          66.1758   92.8965   14.1679 C.ar    1  UNL1        0.0072
      8 C          63.7619   91.1719   11.4090 C.2     1  UNL1        0.2508
      9 O          63.9685   91.6616   10.0063 O.2     1  UNL1       -0.2698
     10 N          62.7690   90.1350   11.8437 N.am    1  UNL1       -0.2646
     11 C          62.9054   89.9555   13.3266 C.3     1  UNL1        0.1400
     12 C          66.1379   93.3926   11.6178 C.ar    1  UNL1        0.0106
     13 C          65.4921   94.6792   11.1963 C.ar    1  UNL1        0.0017
     14 C          66.0214   95.4311   10.0112 C.ar    1  UNL1        0.0114
     15 C          67.1966   94.8964    9.2477 C.ar    1  UNL1        0.0585
     16 CL         67.7259   95.6483    8.0626 Cl      1  UNL1       -0.0822
     17 C          67.8424   93.6098    9.6692 C.ar    1  UNL1        0.0228
     18 C          67.3131   92.8579   10.8543 C.ar    1  UNL1        0.0585
     19 CL         67.9590   91.5714   11.2758 Cl      1  UNL1       -0.0822
     20 C          67.2725   93.9041   14.3476 C.3     1  UNL1        0.0934
     21 N          68.6377   93.4577   14.7801 N.3     1  UNL1       -0.3174
     22 H          68.5893   93.0869   15.7291 H       1  UNL1        0.1192
     23 H          69.2780   94.2513   14.7573 H       1  UNL1        0.1192
     24 C          61.8083   89.4057   10.9520 C.3     1  UNL1        0.1417
     25 C          61.9965   87.9416   10.6851 C.ar    1  UNL1        0.1002
     26 C          61.9477   87.2771    9.3412 C.ar    1  UNL1        0.0384
     27 C          62.1875   85.8099    9.5407 C.ar    1  UNL1        0.0964
     28 N          62.3847   85.5676   11.0078 N.ar    1  UNL1       -0.2476
     29 C          62.6527   84.2409   11.6543 C.3     1  UNL1        0.1537
     30 N          62.2666   86.8852   11.7151 N.ar    1  UNL1       -0.1719
@<TRIPOS>BOND
     1     1     2    1
     2     2     3   ar
     3     3     4   ar
     4     4     5   ar
     5     5     6   ar
     6     6    12    1
     7    12    13   ar
     8    13    14   ar
     9    14    15   ar
    10    15    16    1
    11    15    17   ar
    12    17    18   ar
    13    18    19    1
    14     6     7   ar
    15     7    20    1
    16    20    21    1
    17     5     8    1
    18     8     9    2
    19     8    10   am
    20    10    24    1
    21    24    25    1
    22    25    26   ar
    23    26    27   ar
    24    27    28   ar
    25    28    29    1
    26    28    30   ar
    27    10    11    1
    28     7     2   ar
    29    30    25   ar
    30    11     4    1
    31    18    12   ar
    32    21    22    1
    33    21    23    1
@<TRIPOS>MOLECULE
*****
 30 33 0 0 0
SMALL
GASTEIGER

@<TRIPOS>ATOM
      1 C          58.9670   88.2893    7.1673 C.3     1  UNL1        0.0518
      2 C          59.9494   88.3127    8.3006 C.ar    1  UNL1        0.0563
      3 N          60.3197   89.6154    8.9453 N.ar    1  UNL1       -0.2524
      4 C          61.3021   89.6388   10.0786 C.ar    1  UNL1        0.0830
      5 C          61.9142   88.3595   10.5672 C.ar    1  UNL1        0.0686
      6 C          61.5439   87.0567    9.9225 C.ar    1  UNL1        0.0048
      7 C          60.5614   87.0334    8.7891 C.ar    1  UNL1        0.0072
      8 C          62.8461   88.6923   11.6945 C.2     1  UNL1        0.2508
      9 O          63.6695   87.7121   12.4763 O.2     1  UNL1       -0.2698
     10 N          62.8100   90.1773   11.9026 N.am    1  UNL1       -0.2646
     11 C          61.8558   90.7623   10.9040 C.3     1  UNL1        0.1400
     12 C          62.1559   85.7773   10.4109 C.ar    1  UNL1        0.0106
     13 C          61.7964   85.2434   11.7658 C.ar    1  UNL1        0.0017
     14 C          62.4084   83.9640   12.2544 C.ar    1  UNL1        0.0114
     15 C          63.3798   83.2186   11.3880 C.ar    1  UNL1        0.0585
     16 CL         63.9917   81.9392   11.8766 Cl      1  UNL1       -0.0822
     17 C          63.7393   83.7525   10.0331 C.ar    1  UNL1        0.0228
     18 C          63.1273   85.0319    9.5446 C.ar    1  UNL1        0.0585
     19 CL         63.4868   85.5658    8.1897 Cl      1  UNL1       -0.0822
     20 C          60.1911   85.7306    8.1443 C.3     1  UNL1        0.0934
     21 N          60.7172   85.3922    6.7810 N.3     1  UNL1       -0.3174
     22 H          60.3267   86.0389    6.0957 H       1  UNL1        0.1192
     23 H          60.4484   84.4382    6.5400 H       1  UNL1        0.1192
     24 C          63.5910   90.9430   12.9292 C.3     1  UNL1        0.1417
     25 C          63.5566   90.5189   14.3676 C.ar    1  UNL1        0.1002
     26 C          63.9269   91.3691   15.5465 C.ar    1  UNL1        0.0384
     27 C          63.7450   90.5458   16.7871 C.ar    1  UNL1        0.0964
     28 N          63.2624   89.1867   16.3750 N.ar    1  UNL1       -0.2476
     29 C          62.9509   88.0448   17.2963 C.3     1  UNL1        0.1537
     30 N          63.1459   89.1700   14.8795 N.ar    1  UNL1       -0.1719
@<TRIPOS>BOND
     1     1     2    1
     2     2     3   ar
     3     3     4   ar
     4     4     5   ar
     5     5     6   ar
     6     6    12    1
     7    12    13   ar
     8    13    14   ar
     9    14    15   ar
    10    15    16    1
    11    15    17   ar
    12    17    18   ar
    13    18    19    1
    14     6     7   ar
    15     7    20    1
    16    20    21    1
    17     5     8    1
    18     8     9    2
    19     8    10   am
    20    10    24    1
    21    24    25    1
    22    25    26   ar
    23    26    27   ar
    24    27    28   ar
    25    28    29    1
    26    28    30   ar
    27    10    11    1
    28     7     2   ar
    29    30    25   ar
    30    11     4    1
    31    18    12   ar
    32    21    22    1
    33    21    23    1
@<TRIPOS>MOLECULE
*****
 30 33 0 0 0
SMALL
GASTEIGER

@<TRIPOS>ATOM
      1 C          60.8293   89.3264    9.2084 C.3     1  UNL1        0.0518
      2 C          61.6188   88.7458   10.3441 C.ar    1  UNL1        0.0563
      3 N          61.6548   87.2605   10.5502 N.ar    1  UNL1       -0.2524
      4 C          62.4442   86.6798   11.6859 C.ar    1  UNL1        0.0830
      5 C          63.1975   87.5845   12.6154 C.ar    1  UNL1        0.0686
      6 C          63.1615   89.0698   12.4093 C.ar    1  UNL1        0.0048
      7 C          62.3720   89.6504   11.2736 C.ar    1  UNL1        0.0072
      8 C          63.8835   86.7297   13.6395 C.2     1  UNL1        0.2508
      9 O          64.7472   87.2215   14.7629 O.2     1  UNL1       -0.2698
     10 N          63.5542   85.2967   13.3428 N.am    1  UNL1       -0.2646
     11 C          62.6646   85.2659   12.1354 C.3     1  UNL1        0.1400
     12 C          63.9148   89.9746   13.3388 C.ar    1  UNL1        0.0106
     13 C          65.1546   90.6730   12.8644 C.ar    1  UNL1        0.0017
     14 C          65.9080   91.5778   13.7939 C.ar    1  UNL1        0.0114
     15 C          65.4214   91.7841   15.1977 C.ar    1  UNL1        0.0585
     16 CL         66.1748   92.6889   16.1271 Cl      1  UNL1       -0.0822
     17 C          64.1816   91.0857   15.6721 C.ar    1  UNL1        0.0228
     18 C          63.4283   90.1809   14.7426 C.ar    1  UNL1        0.0585
     19 CL         62.1884   89.4825   15.2170 Cl      1  UNL1       -0.0822
     20 C          62.3360   91.1359   11.0674 C.3     1  UNL1        0.0934
     21 N          63.1629   91.7630    9.9845 N.3     1  UNL1       -0.3174
     22 H          64.1527   91.6447   10.2008 H       1  UNL1        0.1192
     23 H          62.9449   92.7576    9.9230 H       1  UNL1        0.1192
     24 C          64.0307   84.1039   14.1175 C.3     1  UNL1        0.1417
     25 C          63.3174   82.7909   13.9867 C.ar    1  UNL1        0.1002
     26 C          63.9181   81.5060   13.4986 C.ar    1  UNL1        0.0384
     27 C          62.8502   80.4532   13.5314 C.ar    1  UNL1        0.0964
     28 N          61.5894   81.0873   14.0397 N.ar    1  UNL1       -0.2476
     29 C          60.2714   80.3979   14.2328 C.3     1  UNL1        0.1537
     30 N          61.8782   82.5322   14.3212 N.ar    1  UNL1       -0.1719
@<TRIPOS>BOND
     1     1     2    1
     2     2     3   ar
     3     3     4   ar
     4     4     5   ar
     5     5     6   ar
     6     6    12    1
     7    12    13   ar
     8    13    14   ar
     9    14    15   ar
    10    15    16    1
    11    15    17   ar
    12    17    18   ar
    13    18    19    1
    14     6     7   ar
    15     7    20    1
    16    20    21    1
    17     5     8    1
    18     8     9    2
    19     8    10   am
    20    10    24    1
    21    24    25    1
    22    25    26   ar
    23    26    27   ar
    24    27    28   ar
    25    28    29    1
    26    28    30   ar
    27    10    11    1
    28     7     2   ar
    29    30    25   ar
    30    11     4    1
    31    18    12   ar
    32    21    22    1
    33    21    23    1
@<TRIPOS>MOLECULE
*****
 30 33 0 0 0
SMALL
GASTEIGER

@<TRIPOS>ATOM
      1 C          60.0783   88.5431    8.0718 C.3     1  UNL1        0.0518
      2 C          60.9359   88.3313    9.2842 C.ar    1  UNL1        0.0563
      3 N          61.4322   89.5107   10.0670 N.ar    1  UNL1       -0.2524
      4 C          62.2897   89.2990   11.2793 C.ar    1  UNL1        0.0830
      5 C          62.6509   87.9080   11.7090 C.ar    1  UNL1        0.0686
      6 C          62.1546   86.7286   10.9262 C.ar    1  UNL1        0.0048
      7 C          61.2970   86.9404    9.7138 C.ar    1  UNL1        0.0072
      8 C          63.5059   88.0094   12.9372 C.2     1  UNL1        0.2508
      9 O          64.0909   86.8591   13.7018 O.2     1  UNL1       -0.2698
     10 N          63.6731   89.4632   13.2667 N.am    1  UNL1       -0.2646
     11 C          62.9215   90.2602   12.2421 C.3     1  UNL1        0.1400
     12 C          62.5157   85.3375   11.3557 C.ar    1  UNL1        0.0106
     13 C          62.1282   84.8496   12.7202 C.ar    1  UNL1        0.0017
     14 C          62.4893   83.4585   13.1498 C.ar    1  UNL1        0.0114
     15 C          63.2379   82.5555   12.2149 C.ar    1  UNL1        0.0585
     16 CL         63.5990   81.1644   12.6446 Cl      1  UNL1       -0.0822
     17 C          63.6254   83.0434   10.8505 C.ar    1  UNL1        0.0228
     18 C          63.2643   84.4345   10.4209 C.ar    1  UNL1        0.0585
     19 CL         63.6518   84.9224    9.0564 Cl      1  UNL1       -0.0822
     20 C          60.8007   85.7609    8.9309 C.3     1  UNL1        0.0934
     21 N          61.1073   85.6498    7.4668 N.3     1  UNL1       -0.3174
     22 H          60.6351   86.4002    6.9626 H       1  UNL1        0.1192
     23 H          60.7809   84.7483    7.1186 H       1  UNL1        0.1192
     24 C          64.4547   90.0219   14.4187 C.3     1  UNL1        0.1417
     25 C          65.5079   91.0621   14.1761 C.ar    1  UNL1        0.1002
     26 C          65.4974   92.0893   13.0831 C.ar    1  UNL1        0.0384
     27 C          66.7394   92.9197   13.2155 C.ar    1  UNL1        0.0964
     28 N          67.5177   92.4059   14.3903 N.ar    1  UNL1       -0.2476
     29 C          68.8271   92.9453   14.8847 C.3     1  UNL1        0.1537
     30 N          66.7565   91.2577   14.9841 N.ar    1  UNL1       -0.1719
@<TRIPOS>BOND
     1     1     2    1
     2     2     3   ar
     3     3     4   ar
     4     4     5   ar
     5     5     6   ar
     6     6    12    1
     7    12    13   ar
     8    13    14   ar
     9    14    15   ar
    10    15    16    1
    11    15    17   ar
    12    17    18   ar
    13    18    19    1
    14     6     7   ar
    15     7    20    1
    16    20    21    1
    17     5     8    1
    18     8     9    2
    19     8    10   am
    20    10    24    1
    21    24    25    1
    22    25    26   ar
    23    26    27   ar
    24    27    28   ar
    25    28    29    1
    26    28    30   ar
    27    10    11    1
    28     7     2   ar
    29    30    25   ar
    30    11     4    1
    31    18    12   ar
    32    21    22    1
    33    21    23    1
@<TRIPOS>MOLECULE
*****
 30 33 0 0 0
SMALL
GASTEIGER

@<TRIPOS>ATOM
      1 C          63.0755   92.3654    2.5520 C.3     1  UNL1        0.0518
      2 C          62.4540   92.7114    1.2313 C.ar    1  UNL1        0.0563
      3 N          61.0426   92.2987    0.9356 N.ar    1  UNL1       -0.2524
      4 C          60.4211   92.6447   -0.3850 C.ar    1  UNL1        0.0830
      5 C          61.2110   93.4034   -1.4099 C.ar    1  UNL1        0.0686
      6 C          62.6225   93.8161   -1.1142 C.ar    1  UNL1        0.0048
      7 C          63.2440   93.4701    0.2065 C.ar    1  UNL1        0.0072
      8 C          60.3389   93.6012   -2.6142 C.2     1  UNL1        0.2508
      9 O          60.7275   94.3109   -3.8772 O.2     1  UNL1       -0.2698
     10 N          59.0099   92.9648   -2.3335 N.am    1  UNL1       -0.2646
     11 C          59.0607   92.3736   -0.9559 C.3     1  UNL1        0.1400
     12 C          63.4125   94.5748   -2.1390 C.ar    1  UNL1        0.0106
     13 C          63.5734   96.0608   -2.0125 C.ar    1  UNL1        0.0017
     14 C          64.3634   96.8196   -3.0373 C.ar    1  UNL1        0.0114
     15 C          64.9925   96.0924   -4.1885 C.ar    1  UNL1        0.0585
     16 CL         65.7825   96.8511   -5.2133 Cl      1  UNL1       -0.0822
     17 C          64.8316   94.6064   -4.3150 C.ar    1  UNL1        0.0228
     18 C          64.0416   93.8476   -3.2902 C.ar    1  UNL1        0.0585
     19 CL         63.8807   92.3616   -3.4167 Cl      1  UNL1       -0.0822
     20 C          64.6555   93.8828    0.5023 C.3     1  UNL1        0.0934
     21 N          65.7551   92.8628    0.4817 N.3     1  UNL1       -0.3174
     22 H          65.6114   92.1926    1.2371 H       1  UNL1        0.1192
     23 H          66.6536   93.3289    0.6071 H       1  UNL1        0.1192
     24 C          57.8362   92.9263   -3.2667 C.3     1  UNL1        0.1417
     25 C          56.6564   93.8205   -3.0253 C.ar    1  UNL1        0.1002
     26 C          56.0218   94.1032   -1.6958 C.ar    1  UNL1        0.0384
     27 C          54.8773   95.0464   -1.9197 C.ar    1  UNL1        0.0964
     28 N          54.8044   95.3468   -3.3875 N.ar    1  UNL1       -0.2476
     29 C          53.8071   96.2468   -4.0550 C.3     1  UNL1        0.1537
     30 N          55.9040   94.5891   -4.0708 N.ar    1  UNL1       -0.1719
@<TRIPOS>BOND
     1     1     2    1
     2     2     3   ar
     3     3     4   ar
     4     4     5   ar
     5     5     6   ar
     6     6    12    1
     7    12    13   ar
     8    13    14   ar
     9    14    15   ar
    10    15    16    1
    11    15    17   ar
    12    17    18   ar
    13    18    19    1
    14     6     7   ar
    15     7    20    1
    16    20    21    1
    17     5     8    1
    18     8     9    2
    19     8    10   am
    20    10    24    1
    21    24    25    1
    22    25    26   ar
    23    26    27   ar
    24    27    28   ar
    25    28    29    1
    26    28    30   ar
    27    10    11    1
    28     7     2   ar
    29    30    25   ar
    30    11     4    1
    31    18    12   ar
    32    21    22    1
    33    21    23    1
@<TRIPOS>MOLECULE
*****
 30 33 0 0 0
SMALL
GASTEIGER

@<TRIPOS>ATOM
      1 C          63.1012   80.0526   11.5654 C.3     1  UNL1        0.0518
      2 C          63.0027   81.5487   11.6100 C.ar    1  UNL1        0.0563
      3 N          62.9096   82.3325   10.3345 N.ar    1  UNL1       -0.2524
      4 C          62.8111   83.8286   10.3791 C.ar    1  UNL1        0.0830
      5 C          62.8057   84.5409   11.6992 C.ar    1  UNL1        0.0686
      6 C          62.8988   83.7571   12.9747 C.ar    1  UNL1        0.0048
      7 C          62.9973   82.2609   12.9300 C.ar    1  UNL1        0.0072
      8 C          62.6988   86.0129   11.4313 C.2     1  UNL1        0.2508
      9 O          62.6595   87.0971   12.4672 O.2     1  UNL1       -0.2698
     10 N          62.6381   86.2104    9.9456 N.am    1  UNL1       -0.2646
     11 C          62.7075   84.8604    9.2953 C.3     1  UNL1        0.1400
     12 C          62.8934   84.4693   14.2949 C.ar    1  UNL1        0.0106
     13 C          61.6046   84.6619   15.0378 C.ar    1  UNL1        0.0017
     14 C          61.5992   85.3741   16.3580 C.ar    1  UNL1        0.0114
     15 C          62.8825   85.8936   16.9351 C.ar    1  UNL1        0.0585
     16 CL         62.8770   86.6058   18.2552 Cl      1  UNL1       -0.0822
     17 C          64.1712   85.7010   16.1921 C.ar    1  UNL1        0.0228
     18 C          64.1767   84.9888   14.8720 C.ar    1  UNL1        0.0585
     19 CL         65.4655   84.7962   14.1291 Cl      1  UNL1       -0.0822
     20 C          63.0904   81.4770   14.2056 C.3     1  UNL1        0.0934
     21 N          61.8427   80.9777   14.8718 N.3     1  UNL1       -0.3174
     22 H          61.2911   81.7709   15.1988 H       1  UNL1        0.1192
     23 H          62.0936   80.3879   15.6653 H       1  UNL1        0.1192
     24 C          62.5275   87.5267    9.2349 C.3     1  UNL1        0.1417
     25 C          61.9339   88.7112    9.9382 C.ar    1  UNL1        0.1002
     26 C          62.6698   89.9515   10.3507 C.ar    1  UNL1        0.0384
     27 C          61.6910   90.8702   11.0199 C.ar    1  UNL1        0.0964
     28 N          60.3502   90.1977   11.0210 N.ar    1  UNL1       -0.2476
     29 C          59.0819   90.7607   11.5906 C.3     1  UNL1        0.1537
     30 N          60.5003   88.8633   10.3525 N.ar    1  UNL1       -0.1719
@<TRIPOS>BOND
     1     1     2    1
     2     2     3   ar
     3     3     4   ar
     4     4     5   ar
     5     5     6   ar
     6     6    12    1
     7    12    13   ar
     8    13    14   ar
     9    14    15   ar
    10    15    16    1
    11    15    17   ar
    12    17    18   ar
    13    18    19    1
    14     6     7   ar
    15     7    20    1
    16    20    21    1
    17     5     8    1
    18     8     9    2
    19     8    10   am
    20    10    24    1
    21    24    25    1
    22    25    26   ar
    23    26    27   ar
    24    27    28   ar
    25    28    29    1
    26    28    30   ar
    27    10    11    1
    28     7     2   ar
    29    30    25   ar
    30    11     4    1
    31    18    12   ar
    32    21    22    1
    33    21    23    1
@<TRIPOS>MOLECULE
*****
 30 33 0 0 0
SMALL
GASTEIGER

@<TRIPOS>ATOM
      1 C          63.1294   91.9856    3.0847 C.3     1  UNL1        0.0518
      2 C          62.4160   92.5296    1.8824 C.ar    1  UNL1        0.0563
      3 N          60.9173   92.5047    1.8248 N.ar    1  UNL1       -0.2524
      4 C          60.2039   93.0486    0.6226 C.ar    1  UNL1        0.0830
      5 C          60.9891   93.6174   -0.5218 C.ar    1  UNL1        0.0686
      6 C          62.4878   93.6423   -0.4642 C.ar    1  UNL1        0.0048
      7 C          63.2012   93.0984    0.7380 C.ar    1  UNL1        0.0072
      8 C          60.0172   94.0782   -1.5673 C.2     1  UNL1        0.2508
      9 O          60.3693   94.7117   -2.8805 O.2     1  UNL1       -0.2698
     10 N          58.6312   93.7941   -1.0689 N.am    1  UNL1       -0.2646
     11 C          58.7466   93.1578    0.2845 C.3     1  UNL1        0.1400
     12 C          63.2731   94.2111   -1.6087 C.ar    1  UNL1        0.0106
     13 C          63.5884   93.3562   -2.8002 C.ar    1  UNL1        0.0017
     14 C          64.3737   93.9249   -3.9447 C.ar    1  UNL1        0.0114
     15 C          64.8437   95.3485   -3.8976 C.ar    1  UNL1        0.0585
     16 CL         65.6291   95.9172   -5.0420 Cl      1  UNL1       -0.0822
     17 C          64.5285   96.2035   -2.7061 C.ar    1  UNL1        0.0228
     18 C          63.7432   95.6348   -1.5616 C.ar    1  UNL1        0.0585
     19 CL         63.4279   96.4897   -0.3701 Cl      1  UNL1       -0.0822
     20 C          64.7000   93.1233    0.7957 C.3     1  UNL1        0.0934
     21 N          65.3979   94.0128    1.7814 N.3     1  UNL1       -0.3174
     22 H          65.2200   94.9887    1.5440 H       1  UNL1        0.1192
     23 H          66.4015   93.8329    1.7505 H       1  UNL1        0.1192
     24 C          57.3540   94.0938   -1.7963 C.3     1  UNL1        0.1417
     25 C          56.7928   93.0981   -2.7677 C.ar    1  UNL1        0.1002
     26 C          56.2555   91.7399   -2.4265 C.ar    1  UNL1        0.0384
     27 C          55.8010   91.0882   -3.6987 C.ar    1  UNL1        0.0964
     28 N          56.0572   92.0436   -4.8263 N.ar    1  UNL1       -0.2476
     29 C          55.7539   91.7998   -6.2749 C.3     1  UNL1        0.1537
     30 N          56.6703   93.2859   -4.2508 N.ar    1  UNL1       -0.1719
@<TRIPOS>BOND
     1     1     2    1
     2     2     3   ar
     3     3     4   ar
     4     4     5   ar
     5     5     6   ar
     6     6    12    1
     7    12    13   ar
     8    13    14   ar
     9    14    15   ar
    10    15    16    1
    11    15    17   ar
    12    17    18   ar
    13    18    19    1
    14     6     7   ar
    15     7    20    1
    16    20    21    1
    17     5     8    1
    18     8     9    2
    19     8    10   am
    20    10    24    1
    21    24    25    1
    22    25    26   ar
    23    26    27   ar
    24    27    28   ar
    25    28    29    1
    26    28    30   ar
    27    10    11    1
    28     7     2   ar
    29    30    25   ar
    30    11     4    1
    31    18    12   ar
    32    21    22    1
    33    21    23    1
