@<TRIPOS>MOLECULE
*****
 31 34 0 0 0
SMALL
GASTEIGER

@<TRIPOS>ATOM
      1 C          60.2527   87.9392    9.6110 C.ar    1  UNL1        0.1518
      2 C          59.8280   89.2756   10.1437 C.ar    1  UNL1        0.0396
      3 C          60.8611   90.2720   10.5794 C.ar    1  UNL1        0.0236
      4 C          62.3189   89.9321   10.4825 C.ar    1  UNL1        0.1291
      5 C          62.7435   88.5957    9.9498 C.ar    1  UNL1        0.0378
      6 C          61.7105   87.5993    9.5141 C.ar    1  UNL1        0.0804
      7 S          63.3519   90.9286   10.9182 S.O2    1  UNL1        0.0860
      8 O          63.5758   90.1458   12.1779 O.2     1  UNL1       -0.1476
      9 O          63.1280   91.7115    9.6585 O.2     1  UNL1       -0.1476
     10 N          64.3849   91.9252   11.3539 N.ar    1  UNL1       -0.2081
     11 C          64.9614   93.0234   10.5104 C.ar    1  UNL1        0.0956
     12 C          65.9555   93.7754   11.3448 C.ar    1  UNL1       -0.0014
     13 C          66.7689   94.9540   10.8985 C.3     1  UNL1        0.0327
     14 C          65.9935   93.1419   12.7039 C.ar    1  UNL1        0.0159
     15 C          66.7865   93.4585   13.9371 C.ar    1  UNL1        0.0126
     16 C          66.6089   92.6316   15.1759 C.ar    1  UNL1        0.0578
     17 CL         67.4019   92.9482   16.4092 Cl      1  UNL1       -0.0822
     18 C          65.6381   91.4881   15.1815 C.ar    1  UNL1        0.0129
     19 C          64.8451   91.1714   13.9483 C.ar    1  UNL1        0.0198
     20 C          65.0228   91.9983   12.7096 C.ar    1  UNL1        0.0823
     21 C          58.9302   86.7522    7.7158 C.3     1  UNL1        0.2525
     22 O          59.2197   86.9427    9.1752 O.3     1  UNL1       -0.4702
     23 N          62.1352   86.2630    8.9814 N.pl3   1  UNL1       -0.3316
     24 H          62.0789   86.0773    8.0162 H       1  UNL1        0.1469
     25 C          62.6456   85.2095    9.9193 C.3     1  UNL1        0.0719
     26 C          63.5695   84.1405    9.4153 C.3     1  UNL1        0.0368
     27 C          64.0799   83.0870   10.3533 C.3     1  UNL1        0.0738
     28 N          63.6664   83.1026   11.7951 N.3     1  UNL1       -0.2714
     29 C          64.1768   82.0491   12.7330 C.3     1  UNL1        0.0896
     30 C          62.7426   84.1715   12.2990 C.3     1  UNL1        0.0738
     31 C          62.2322   85.2249   11.3611 C.3     1  UNL1        0.0368
@<TRIPOS>BOND
     1    21    22    1
     2    22     1    1
     3     1     2   ar
     4     2     3   ar
     5     3     4   ar
     6     4     7    1
     7     7     8    2
     8     7     9    2
     9     7    10    1
    10    10    11   ar
    11    11    12   ar
    12    12    13    1
    13    12    14   ar
    14    14    15   ar
    15    15    16   ar
    16    16    17    1
    17    16    18   ar
    18    18    19   ar
    19    19    20   ar
    20     4     5   ar
    21     5     6   ar
    22     6    23    1
    23    23    25    1
    24    25    26    1
    25    26    27    1
    26    27    28    1
    27    28    29    1
    28    28    30    1
    29    30    31    1
    30     6     1   ar
    31    31    25    1
    32    20    10   ar
    33    20    14   ar
    34    23    24    1
@<TRIPOS>MOLECULE
*****
 31 34 0 0 0
SMALL
GASTEIGER

@<TRIPOS>ATOM
      1 C          65.0371   90.7637   14.2407 C.ar    1  UNL1        0.1518
      2 C          64.4550   89.3837   14.3236 C.ar    1  UNL1        0.0396
      3 C          63.5840   88.8694   13.2159 C.ar    1  UNL1        0.0236
      4 C          63.2951   89.7350   12.0255 C.ar    1  UNL1        0.1291
      5 C          63.8772   91.1149   11.9426 C.ar    1  UNL1        0.0378
      6 C          64.7481   91.6293   13.0501 C.ar    1  UNL1        0.0804
      7 S          62.4241   89.2205   10.9179 S.O2    1  UNL1        0.0860
      8 O          61.9501   88.1092   11.8067 O.2     1  UNL1       -0.1476
      9 O          62.8981   90.3319   10.0290 O.2     1  UNL1       -0.1476
     10 N          61.5531   88.7062    9.8103 N.ar    1  UNL1       -0.2081
     11 C          60.3201   89.3729    9.2762 C.ar    1  UNL1        0.0956
     12 C          59.7672   88.5135    8.1781 C.ar    1  UNL1       -0.0014
     13 C          58.5387   88.8014    7.3670 C.3     1  UNL1        0.0327
     14 C          60.6584   87.3157    8.0335 C.ar    1  UNL1        0.0159
     15 C          60.6075   86.1320    7.1137 C.ar    1  UNL1        0.0126
     16 C          61.6604   85.0673    7.2026 C.ar    1  UNL1        0.0578
     17 CL         61.6095   83.8835    6.2827 Cl      1  UNL1       -0.0822
     18 C          62.7641   85.1864    8.2114 C.ar    1  UNL1        0.0129
     19 C          62.8150   86.3701    9.1312 C.ar    1  UNL1        0.0198
     20 C          61.7622   87.4348    9.0423 C.ar    1  UNL1        0.0823
     21 C          67.3473   91.6053   15.0801 C.3     1  UNL1        0.2525
     22 O          65.9081   91.2781   15.3482 O.3     1  UNL1       -0.4702
     23 N          65.3302   93.0092   12.9673 N.pl3   1  UNL1       -0.3316
     24 H          65.2938   93.6066   13.7490 H       1  UNL1        0.1469
     25 C          65.9677   93.4790   11.6934 C.3     1  UNL1        0.0719
     26 C          66.9168   92.5826   10.9546 C.3     1  UNL1        0.0368
     27 C          67.5543   93.0525    9.6806 C.3     1  UNL1        0.0738
     28 N          67.2427   94.4187    9.1456 N.3     1  UNL1       -0.2714
     29 C          67.8802   94.8886    7.8716 C.3     1  UNL1        0.0896
     30 C          66.2937   95.3151    9.8843 C.3     1  UNL1        0.0738
     31 C          65.6562   94.8453   11.1582 C.3     1  UNL1        0.0368
@<TRIPOS>BOND
     1    21    22    1
     2    22     1    1
     3     1     2   ar
     4     2     3   ar
     5     3     4   ar
     6     4     7    1
     7     7     8    2
     8     7     9    2
     9     7    10    1
    10    10    11   ar
    11    11    12   ar
    12    12    13    1
    13    12    14   ar
    14    14    15   ar
    15    15    16   ar
    16    16    17    1
    17    16    18   ar
    18    18    19   ar
    19    19    20   ar
    20     4     5   ar
    21     5     6   ar
    22     6    23    1
    23    23    25    1
    24    25    26    1
    25    26    27    1
    26    27    28    1
    27    28    29    1
    28    28    30    1
    29    30    31    1
    30     6     1   ar
    31    31    25    1
    32    20    10   ar
    33    20    14   ar
    34    23    24    1
@<TRIPOS>MOLECULE
*****
 31 34 0 0 0
SMALL
GASTEIGER

@<TRIPOS>ATOM
      1 C          60.3483   87.5964    9.6281 C.ar    1  UNL1        0.1518
      2 C          59.8861   88.9252   10.1482 C.ar    1  UNL1        0.0396
      3 C          60.8565   89.8412   10.8333 C.ar    1  UNL1        0.0236
      4 C          62.2891   89.4282   10.9984 C.ar    1  UNL1        0.1291
      5 C          62.7512   88.0993   10.4783 C.ar    1  UNL1        0.0378
      6 C          61.7809   87.1834    9.7932 C.ar    1  UNL1        0.0804
      7 S          63.2594   90.3442   11.6836 S.O2    1  UNL1        0.0860
      8 O          63.5476   89.2791   12.6996 O.2     1  UNL1       -0.1476
      9 O          62.9712   91.4094   10.6675 O.2     1  UNL1       -0.1476
     10 N          64.2297   91.2603   12.3687 N.ar    1  UNL1       -0.2081
     11 C          64.7323   91.1199   13.7750 C.ar    1  UNL1        0.0956
     12 C          65.6810   92.2504   14.0431 C.ar    1  UNL1       -0.0014
     13 C          66.4168   92.4983   15.3265 C.3     1  UNL1        0.0327
     14 C          65.7647   93.0895   12.8026 C.ar    1  UNL1        0.0159
     15 C          66.5418   94.3317   12.4816 C.ar    1  UNL1        0.0126
     16 C          66.4219   94.9619   11.1258 C.ar    1  UNL1        0.0578
     17 CL         67.1990   96.2042   10.8047 Cl      1  UNL1       -0.0822
     18 C          65.5249   94.3500   10.0909 C.ar    1  UNL1        0.0129
     19 C          64.7479   93.1078   10.4118 C.ar    1  UNL1        0.0198
     20 C          64.8678   92.4775   11.7677 C.ar    1  UNL1        0.0823
     21 C          59.0120   86.9139    7.5071 C.3     1  UNL1        0.2525
     22 O          59.3780   86.6804    8.9430 O.3     1  UNL1       -0.4702
     23 N          62.2430   85.8546    9.2732 N.pl3   1  UNL1       -0.3316
     24 H          62.2315   85.6736    8.3055 H       1  UNL1        0.1469
     25 C          62.7227   84.8014   10.2275 C.3     1  UNL1        0.0719
     26 C          63.6442   83.7189    9.7486 C.3     1  UNL1        0.0368
     27 C          64.1238   82.6657   10.7030 C.3     1  UNL1        0.0738
     28 N          63.6820   82.6950   12.1361 N.3     1  UNL1       -0.2714
     29 C          64.1616   81.6417   13.0905 C.3     1  UNL1        0.0896
     30 C          62.7605   83.7774   12.6150 C.3     1  UNL1        0.0738
     31 C          62.2809   84.8306   11.6607 C.3     1  UNL1        0.0368
@<TRIPOS>BOND
     1    21    22    1
     2    22     1    1
     3     1     2   ar
     4     2     3   ar
     5     3     4   ar
     6     4     7    1
     7     7     8    2
     8     7     9    2
     9     7    10    1
    10    10    11   ar
    11    11    12   ar
    12    12    13    1
    13    12    14   ar
    14    14    15   ar
    15    15    16   ar
    16    16    17    1
    17    16    18   ar
    18    18    19   ar
    19    19    20   ar
    20     4     5   ar
    21     5     6   ar
    22     6    23    1
    23    23    25    1
    24    25    26    1
    25    26    27    1
    26    27    28    1
    27    28    29    1
    28    28    30    1
    29    30    31    1
    30     6     1   ar
    31    31    25    1
    32    20    10   ar
    33    20    14   ar
    34    23    24    1
@<TRIPOS>MOLECULE
*****
 31 34 0 0 0
SMALL
GASTEIGER

@<TRIPOS>ATOM
      1 C          64.7057   90.4223   14.2493 C.ar    1  UNL1        0.1518
      2 C          64.3303   91.3773   13.1553 C.ar    1  UNL1        0.0396
      3 C          63.5004   90.9042   11.9987 C.ar    1  UNL1        0.0236
      4 C          63.0459   89.4761   11.9363 C.ar    1  UNL1        0.1291
      5 C          63.4212   88.5211   13.0304 C.ar    1  UNL1        0.0378
      6 C          64.2511   88.9941   14.1868 C.ar    1  UNL1        0.0804
      7 S          62.2160   89.0032   10.7797 S.O2    1  UNL1        0.0860
      8 O          61.6515   87.9065   11.6332 O.2     1  UNL1       -0.1476
      9 O          62.7805   90.0999    9.9262 O.2     1  UNL1       -0.1476
     10 N          61.3861   88.5303    9.6232 N.ar    1  UNL1       -0.2081
     11 C          60.1932   89.2344    9.0477 C.ar    1  UNL1        0.0956
     12 C          59.6734   88.4095    7.9079 C.ar    1  UNL1       -0.0014
     13 C          58.4897   88.7404    7.0479 C.3     1  UNL1        0.0327
     14 C          60.5449   87.1955    7.7789 C.ar    1  UNL1        0.0159
     15 C          60.5114   86.0318    6.8331 C.ar    1  UNL1        0.0126
     16 C          61.5364   84.9427    6.9474 C.ar    1  UNL1        0.0578
     17 CL         61.5030   83.7789    6.0016 Cl      1  UNL1       -0.0822
     18 C          62.5950   85.0173    8.0076 C.ar    1  UNL1        0.0129
     19 C          62.6285   86.1811    8.9534 C.ar    1  UNL1        0.0198
     20 C          61.6035   87.2701    8.8390 C.ar    1  UNL1        0.0823
     21 C          66.1810   92.2486   15.3619 C.3     1  UNL1        0.2525
     22 O          65.5355   90.8952   15.4058 O.3     1  UNL1       -0.4702
     23 N          64.6264   88.0391   15.2809 N.pl3   1  UNL1       -0.3316
     24 H          65.1140   88.3639   16.0721 H       1  UNL1        0.1469
     25 C          64.2588   86.5891   15.1695 C.3     1  UNL1        0.0719
     26 C          65.0286   85.6887   14.2493 C.3     1  UNL1        0.0368
     27 C          64.6609   84.2386   14.1380 C.3     1  UNL1        0.0738
     28 N          63.5235   83.6892   14.9468 N.3     1  UNL1       -0.2714
     29 C          63.1558   82.2391   14.8355 C.3     1  UNL1        0.0896
     30 C          62.7537   84.5895   15.8670 C.3     1  UNL1        0.0738
     31 C          63.1213   86.0395   15.9783 C.3     1  UNL1        0.0368
@<TRIPOS>BOND
     1    21    22    1
     2    22     1    1
     3     1     2   ar
     4     2     3   ar
     5     3     4   ar
     6     4     7    1
     7     7     8    2
     8     7     9    2
     9     7    10    1
    10    10    11   ar
    11    11    12   ar
    12    12    13    1
    13    12    14   ar
    14    14    15   ar
    15    15    16   ar
    16    16    17    1
    17    16    18   ar
    18    18    19   ar
    19    19    20   ar
    20     4     5   ar
    21     5     6   ar
    22     6    23    1
    23    23    25    1
    24    25    26    1
    25    26    27    1
    26    27    28    1
    27    28    29    1
    28    28    30    1
    29    30    31    1
    30     6     1   ar
    31    31    25    1
    32    20    10   ar
    33    20    14   ar
    34    23    24    1
@<TRIPOS>MOLECULE
*****
 31 34 0 0 0
SMALL
GASTEIGER

@<TRIPOS>ATOM
      1 C          65.4254   92.0113   15.2889 C.ar    1  UNL1        0.1518
      2 C          64.2630   91.2361   15.8345 C.ar    1  UNL1        0.0396
      3 C          63.6164   90.1687   15.0023 C.ar    1  UNL1        0.0236
      4 C          64.1322   89.8766   13.6244 C.ar    1  UNL1        0.1291
      5 C          65.2947   90.6518   13.0788 C.ar    1  UNL1        0.0378
      6 C          65.9413   91.7191   13.9110 C.ar    1  UNL1        0.0804
      7 S          63.4855   88.8092   12.7922 S.O2    1  UNL1        0.0860
      8 O          63.1443   89.8302   11.7477 O.2     1  UNL1       -0.1476
      9 O          63.8268   87.7882   13.8367 O.2     1  UNL1       -0.1476
     10 N          62.8389   87.7418   11.9600 N.ar    1  UNL1       -0.2081
     11 C          63.0463   86.2634   12.1059 C.ar    1  UNL1        0.0956
     12 C          62.2069   85.5734   11.0719 C.ar    1  UNL1       -0.0014
     13 C          62.1106   84.0915   10.8600 C.3     1  UNL1        0.0327
     14 C          61.4806   86.6252   10.2870 C.ar    1  UNL1        0.0159
     15 C          60.5141   86.5358    9.1435 C.ar    1  UNL1        0.0126
     16 C          59.9381   87.7867    8.5488 C.ar    1  UNL1        0.0578
     17 CL         58.9716   87.6973    7.4051 Cl      1  UNL1       -0.0822
     18 C          60.3287   89.1269    9.0977 C.ar    1  UNL1        0.0129
     19 C          61.2952   89.2163   10.2412 C.ar    1  UNL1        0.0198
     20 C          61.8712   87.9654   10.8359 C.ar    1  UNL1        0.0823
     21 C          67.5467   93.0281   16.3919 C.3     1  UNL1        0.2525
     22 O          66.0721   93.0786   16.1211 O.3     1  UNL1       -0.4702
     23 N          67.1037   92.4943   13.3654 N.pl3   1  UNL1       -0.3316
     24 H          67.9508   92.5288   13.8659 H       1  UNL1        0.1469
     25 C          66.9755   93.2171   12.0573 C.3     1  UNL1        0.0719
     26 C          67.5277   92.6041   10.8044 C.3     1  UNL1        0.0368
     27 C          67.3994   93.3269    9.4963 C.3     1  UNL1        0.0738
     28 N          66.7191   94.6626    9.4411 N.3     1  UNL1       -0.2714
     29 C          66.5909   95.3854    8.1329 C.3     1  UNL1        0.0896
     30 C          66.1671   95.2755   10.6938 C.3     1  UNL1        0.0738
     31 C          66.2953   94.5528   12.0019 C.3     1  UNL1        0.0368
@<TRIPOS>BOND
     1    21    22    1
     2    22     1    1
     3     1     2   ar
     4     2     3   ar
     5     3     4   ar
     6     4     7    1
     7     7     8    2
     8     7     9    2
     9     7    10    1
    10    10    11   ar
    11    11    12   ar
    12    12    13    1
    13    12    14   ar
    14    14    15   ar
    15    15    16   ar
    16    16    17    1
    17    16    18   ar
    18    18    19   ar
    19    19    20   ar
    20     4     5   ar
    21     5     6   ar
    22     6    23    1
    23    23    25    1
    24    25    26    1
    25    26    27    1
    26    27    28    1
    27    28    29    1
    28    28    30    1
    29    30    31    1
    30     6     1   ar
    31    31    25    1
    32    20    10   ar
    33    20    14   ar
    34    23    24    1
@<TRIPOS>MOLECULE
*****
 31 34 0 0 0
SMALL
GASTEIGER

@<TRIPOS>ATOM
      1 C          63.5561   90.1279   15.7078 C.ar    1  UNL1        0.1518
      2 C          63.5480   88.8434   16.4823 C.ar    1  UNL1        0.0396
      3 C          63.5641   87.5304   15.7572 C.ar    1  UNL1        0.0236
      4 C          63.5882   87.5019   14.2577 C.ar    1  UNL1        0.1291
      5 C          63.5963   88.7864   13.4832 C.ar    1  UNL1        0.0378
      6 C          63.5802   90.0994   14.2082 C.ar    1  UNL1        0.0804
      7 S          63.6042   86.1888   13.5327 S.O2    1  UNL1        0.0860
      8 O          62.8191   86.7991   12.4098 O.2     1  UNL1       -0.1476
      9 O          64.3893   85.5784   14.6557 O.2     1  UNL1       -0.1476
     10 N          63.6203   84.8757   12.8078 N.ar    1  UNL1       -0.2081
     11 C          64.2743   84.6068   11.4849 C.ar    1  UNL1        0.0956
     12 C          64.0434   83.1658   11.1381 C.ar    1  UNL1       -0.0014
     13 C          64.5247   82.4689    9.9001 C.3     1  UNL1        0.0327
     14 C          63.2466   82.5442   12.2466 C.ar    1  UNL1        0.0159
     15 C          62.7254   81.1524   12.4496 C.ar    1  UNL1        0.0126
     16 C          61.9427   80.8173   13.6845 C.ar    1  UNL1        0.0578
     17 CL         61.4215   79.4255   13.8875 Cl      1  UNL1       -0.0822
     18 C          61.6812   81.8741   14.7164 C.ar    1  UNL1        0.0129
     19 C          62.2024   83.2659   14.5134 C.ar    1  UNL1        0.0198
     20 C          62.9851   83.6009   13.2785 C.ar    1  UNL1        0.0823
     21 C          64.8192   92.1944   16.6481 C.3     1  UNL1        0.2525
     22 O          63.5401   91.4410   16.4327 O.3     1  UNL1       -0.4702
     23 N          63.5883   91.3840   13.4337 N.pl3   1  UNL1       -0.3316
     24 H          62.8000   91.9734   13.4498 H       1  UNL1        0.1469
     25 C          64.7976   91.7704   12.6348 C.3     1  UNL1        0.0719
     26 C          64.6638   92.0771   11.1725 C.3     1  UNL1        0.0368
     27 C          65.8731   92.4636   10.3735 C.3     1  UNL1        0.0738
     28 N          67.2161   92.5432   11.0368 N.3     1  UNL1       -0.2714
     29 C          68.4254   92.9297   10.2378 C.3     1  UNL1        0.0896
     30 C          67.3499   92.2365   12.4989 C.3     1  UNL1        0.0738
     31 C          66.1407   91.8501   13.2979 C.3     1  UNL1        0.0368
@<TRIPOS>BOND
     1    21    22    1
     2    22     1    1
     3     1     2   ar
     4     2     3   ar
     5     3     4   ar
     6     4     7    1
     7     7     8    2
     8     7     9    2
     9     7    10    1
    10    10    11   ar
    11    11    12   ar
    12    12    13    1
    13    12    14   ar
    14    14    15   ar
    15    15    16   ar
    16    16    17    1
    17    16    18   ar
    18    18    19   ar
    19    19    20   ar
    20     4     5   ar
    21     5     6   ar
    22     6    23    1
    23    23    25    1
    24    25    26    1
    25    26    27    1
    26    27    28    1
    27    28    29    1
    28    28    30    1
    29    30    31    1
    30     6     1   ar
    31    31    25    1
    32    20    10   ar
    33    20    14   ar
    34    23    24    1
@<TRIPOS>MOLECULE
*****
 31 34 0 0 0
SMALL
GASTEIGER

@<TRIPOS>ATOM
      1 C          60.8625   88.2681    8.9567 C.ar    1  UNL1        0.1518
      2 C          60.4781   89.6199    9.4811 C.ar    1  UNL1        0.0396
      3 C          61.1915   90.1942   10.6691 C.ar    1  UNL1        0.0236
      4 C          62.2894   89.4168   11.3326 C.ar    1  UNL1        0.1291
      5 C          62.6738   88.0650   10.8082 C.ar    1  UNL1        0.0378
      6 C          61.9604   87.4907    9.6204 C.ar    1  UNL1        0.0804
      7 S          63.0028   89.9912   12.5206 S.O2    1  UNL1        0.0860
      8 O          62.7611   91.3756   11.9964 O.2     1  UNL1       -0.1476
      9 O          63.2444   88.6067   13.0448 O.2     1  UNL1       -0.1476
     10 N          63.7162   90.5655   13.7086 N.ar    1  UNL1       -0.2081
     11 C          63.1750   90.6523   15.1048 C.ar    1  UNL1        0.0956
     12 C          64.2204   91.2943   15.9680 C.ar    1  UNL1       -0.0014
     13 C          64.0997   91.5768   17.4362 C.3     1  UNL1        0.0327
     14 C          65.4076   91.6042   15.1052 C.ar    1  UNL1        0.0159
     15 C          66.7322   92.2384   15.4107 C.ar    1  UNL1        0.0126
     16 C          67.7451   92.4221   14.3198 C.ar    1  UNL1        0.0578
     17 CL         69.0697   93.0563   14.6252 Cl      1  UNL1       -0.0822
     18 C          67.4335   91.9716   12.9233 C.ar    1  UNL1        0.0129
     19 C          66.1089   91.3375   12.6178 C.ar    1  UNL1        0.0198
     20 C          65.0960   91.1538   13.7088 C.ar    1  UNL1        0.0823
     21 C          58.9775   86.7785    7.9680 C.3     1  UNL1        0.2525
     22 O          60.1492   87.6938    7.7689 O.3     1  UNL1       -0.4702
     23 N          62.3449   86.1390    9.0960 N.pl3   1  UNL1       -0.3316
     24 H          62.3252   85.9629    8.1275 H       1  UNL1        0.1469
     25 C          62.7592   85.0557   10.0471 C.3     1  UNL1        0.0719
     26 C          62.2439   85.0569   11.4559 C.3     1  UNL1        0.0368
     27 C          62.6583   83.9734   12.4070 C.3     1  UNL1        0.0738
     28 N          63.5880   82.8889   11.9493 N.3     1  UNL1       -0.2714
     29 C          64.0024   81.8055   12.9004 C.3     1  UNL1        0.0896
     30 C          64.1033   82.8877   10.5406 C.3     1  UNL1        0.0738
     31 C          63.6889   83.9711    9.5895 C.3     1  UNL1        0.0368
@<TRIPOS>BOND
     1    21    22    1
     2    22     1    1
     3     1     2   ar
     4     2     3   ar
     5     3     4   ar
     6     4     7    1
     7     7     8    2
     8     7     9    2
     9     7    10    1
    10    10    11   ar
    11    11    12   ar
    12    12    13    1
    13    12    14   ar
    14    14    15   ar
    15    15    16   ar
    16    16    17    1
    17    16    18   ar
    18    18    19   ar
    19    19    20   ar
    20     4     5   ar
    21     5     6   ar
    22     6    23    1
    23    23    25    1
    24    25    26    1
    25    26    27    1
    26    27    28    1
    27    28    29    1
    28    28    30    1
    29    30    31    1
    30     6     1   ar
    31    31    25    1
    32    20    10   ar
    33    20    14   ar
    34    23    24    1
@<TRIPOS>MOLECULE
*****
 31 34 0 0 0
SMALL
GASTEIGER

@<TRIPOS>ATOM
      1 C          60.4270   86.5378    8.0181 C.ar    1  UNL1        0.1518
      2 C          61.5717   85.9916    8.8190 C.ar    1  UNL1        0.0396
      3 C          62.2524   86.8549    9.8395 C.ar    1  UNL1        0.0236
      4 C          61.7884   88.2643   10.0592 C.ar    1  UNL1        0.1291
      5 C          60.6437   88.8104    9.2583 C.ar    1  UNL1        0.0378
      6 C          59.9631   87.9473    8.2378 C.ar    1  UNL1        0.0804
      7 S          62.4691   89.1275   11.0797 S.O2    1  UNL1        0.0860
      8 O          62.0014   90.3542   10.3543 O.2     1  UNL1       -0.1476
      9 O          62.9369   87.9007   11.8052 O.2     1  UNL1       -0.1476
     10 N          63.1499   89.9906   12.1003 N.ar    1  UNL1       -0.2081
     11 C          63.0830   89.8158   13.5886 C.ar    1  UNL1        0.0956
     12 C          63.9088   90.8972   14.2199 C.ar    1  UNL1       -0.0014
     13 C          64.1203   91.1000   15.6910 C.3     1  UNL1        0.0327
     14 C          64.4862   91.7404   13.1217 C.ar    1  UNL1        0.0159
     15 C          65.3784   92.9459   13.1454 C.ar    1  UNL1        0.0126
     16 C          65.8015   93.5911   11.8591 C.ar    1  UNL1        0.0578
     17 CL         66.6937   94.7967   11.8827 Cl      1  UNL1       -0.0822
     18 C          65.3324   93.0308   10.5491 C.ar    1  UNL1        0.0129
     19 C          64.4402   91.8252   10.5255 C.ar    1  UNL1        0.0198
     20 C          64.0171   91.1800   11.8118 C.ar    1  UNL1        0.0823
     21 C          60.5186   84.6034    6.2862 C.3     1  UNL1        0.2525
     22 O          59.7463   85.6746    6.9976 O.3     1  UNL1       -0.4702
     23 N          58.8184   88.4934    7.4369 N.pl3   1  UNL1       -0.3316
     24 H          57.9129   88.1268    7.5592 H       1  UNL1        0.1469
     25 C          59.0534   89.5981    6.4498 C.3     1  UNL1        0.0719
     26 C          57.9024   90.4308    5.9680 C.3     1  UNL1        0.0368
     27 C          58.1375   91.5356    4.9809 C.3     1  UNL1        0.0738
     28 N          59.5233   91.8075    4.4756 N.3     1  UNL1       -0.2714
     29 C          59.7583   92.9122    3.4884 C.3     1  UNL1        0.0896
     30 C          60.6742   90.9748    4.9573 C.3     1  UNL1        0.0738
     31 C          60.4392   89.8701    5.9444 C.3     1  UNL1        0.0368
@<TRIPOS>BOND
     1    21    22    1
     2    22     1    1
     3     1     2   ar
     4     2     3   ar
     5     3     4   ar
     6     4     7    1
     7     7     8    2
     8     7     9    2
     9     7    10    1
    10    10    11   ar
    11    11    12   ar
    12    12    13    1
    13    12    14   ar
    14    14    15   ar
    15    15    16   ar
    16    16    17    1
    17    16    18   ar
    18    18    19   ar
    19    19    20   ar
    20     4     5   ar
    21     5     6   ar
    22     6    23    1
    23    23    25    1
    24    25    26    1
    25    26    27    1
    26    27    28    1
    27    28    29    1
    28    28    30    1
    29    30    31    1
    30     6     1   ar
    31    31    25    1
    32    20    10   ar
    33    20    14   ar
    34    23    24    1
@<TRIPOS>MOLECULE
*****
 31 34 0 0 0
SMALL
GASTEIGER

@<TRIPOS>ATOM
      1 C          62.0656   92.7639    2.1764 C.ar    1  UNL1        0.1518
      2 C          60.6205   92.6510    2.5625 C.ar    1  UNL1        0.0396
      3 C          59.5517   93.0788    1.6009 C.ar    1  UNL1        0.0236
      4 C          59.9279   93.6195    0.2533 C.ar    1  UNL1        0.1291
      5 C          61.3730   93.7324   -0.1328 C.ar    1  UNL1        0.0378
      6 C          62.4418   93.3046    0.8287 C.ar    1  UNL1        0.0804
      7 S          58.8590   94.0473   -0.7083 S.O2    1  UNL1        0.0860
      8 O          59.8560   94.8974   -1.4385 O.2     1  UNL1       -0.1476
      9 O          57.8620   93.1972    0.0220 O.2     1  UNL1       -0.1476
     10 N          57.7901   94.4751   -1.6697 N.ar    1  UNL1       -0.2081
     11 C          56.9278   95.6959   -1.5434 C.ar    1  UNL1        0.0956
     12 C          56.0006   95.7324   -2.7220 C.ar    1  UNL1       -0.0014
     13 C          54.9658   96.7827   -2.9975 C.3     1  UNL1        0.0327
     14 C          56.2898   94.5341   -3.5766 C.ar    1  UNL1        0.0159
     15 C          55.6890   94.0502   -4.8630 C.ar    1  UNL1        0.0126
     16 C          56.1942   92.7892   -5.4990 C.ar    1  UNL1        0.0578
     17 CL         55.5934   92.3052   -6.7855 Cl      1  UNL1       -0.0822
     18 C          57.3002   92.0121   -4.8487 C.ar    1  UNL1        0.0129
     19 C          57.9010   92.4960   -3.5624 C.ar    1  UNL1        0.0198
     20 C          57.3958   93.7570   -2.9263 C.ar    1  UNL1        0.0823
     21 C          63.4678   90.8815    3.2901 C.3     1  UNL1        0.2525
     22 O          63.1344   92.3361    3.1379 O.3     1  UNL1       -0.4702
     23 N          63.8868   93.4175    0.4427 N.pl3   1  UNL1       -0.3316
     24 H          64.5746   92.9469    0.9668 H       1  UNL1        0.1469
     25 C          64.2840   94.2475   -0.7419 C.3     1  UNL1        0.0719
     26 C          63.9309   93.7943   -2.1276 C.3     1  UNL1        0.0368
     27 C          64.3281   94.6244   -3.3122 C.3     1  UNL1        0.0738
     28 N          65.0784   95.9075   -3.1112 N.3     1  UNL1       -0.2714
     29 C          65.4756   96.7376   -4.2958 C.3     1  UNL1        0.0896
     30 C          65.4315   96.3607   -1.7256 C.3     1  UNL1        0.0738
     31 C          65.0343   95.5307   -0.5410 C.3     1  UNL1        0.0368
@<TRIPOS>BOND
     1    21    22    1
     2    22     1    1
     3     1     2   ar
     4     2     3   ar
     5     3     4   ar
     6     4     7    1
     7     7     8    2
     8     7     9    2
     9     7    10    1
    10    10    11   ar
    11    11    12   ar
    12    12    13    1
    13    12    14   ar
    14    14    15   ar
    15    15    16   ar
    16    16    17    1
    17    16    18   ar
    18    18    19   ar
    19    19    20   ar
    20     4     5   ar
    21     5     6   ar
    22     6    23    1
    23    23    25    1
    24    25    26    1
    25    26    27    1
    26    27    28    1
    27    28    29    1
    28    28    30    1
    29    30    31    1
    30     6     1   ar
    31    31    25    1
    32    20    10   ar
    33    20    14   ar
    34    23    24    1
