@<TRIPOS>MOLECULE
*****
 47 50 0 0 0
SMALL
GASTEIGER

@<TRIPOS>ATOM
      1 N          63.2000   90.6202   11.0934 N.ar    1  UNL1       -0.2470
      2 C          63.0244   89.7408   12.2958 C.ar    1  UNL1        0.2654
      3 O          62.0408   88.6089   12.2600 O.2     1  UNL1       -0.2668
      4 C          63.8325   89.9934   13.5340 C.ar    1  UNL1        0.0703
      5 C          64.8161   91.1252   13.5698 C.ar    1  UNL1        0.0465
      6 C          65.3413   91.2047   14.5256 C.3     1  UNL1        0.0503
      7 N          64.9917   92.0046   12.3674 N.ar    1  UNL1       -0.2806
      8 C          64.1836   91.7521   11.1292 C.ar    1  UNL1        0.3338
      9 O          64.3592   92.6315    9.9267 O.2     1  UNL1       -0.2462
     10 C          63.6569   89.1139   14.7365 C.ar    1  UNL1        0.0362
     11 C          63.1988   89.7045   16.0370 C.ar    1  UNL1        0.0026
     12 C          63.0232   88.8251   17.2395 C.ar    1  UNL1        0.0033
     13 C          63.3058   87.3552   17.1414 C.ar    1  UNL1        0.0392
     14 C          63.7640   86.7647   15.8409 C.ar    1  UNL1        0.1659
     15 C          63.9396   87.6441   14.6384 C.ar    1  UNL1        0.1739
     16 F          64.3977   87.0536   13.3379 F       1  UNL1       -0.2010
     17 O          64.0466   85.2949   15.7428 O.3     1  UNL1       -0.4705
     18 C          62.9139   84.3117   15.7438 C.3     1  UNL1        0.2374
     19 C          62.4736   83.6734   14.4597 C.3     1  UNL1        0.1898
     20 O          62.9391   84.2305   13.1471 O.3     1  UNL1       -0.3438
     21 C          64.1592   83.6650   12.4827 C.3     1  UNL1        0.1836
     22 C          64.0226   82.5538   11.4843 C.2     1  UNL1        0.0801
     23 O          63.1001   81.4044   11.7629 O.co2   1  UNL1       -0.5466
     24 O          64.8086   82.5922   10.2073 O.co2   1  UNL1       -0.5466
     25 C          62.3919   90.3677    9.8551 C.3     1  UNL1        0.1337
     26 C          61.0189   89.7735    9.9637 C.3     1  UNL1        0.1000
     27 C          60.6915   88.5036    9.2355 C.ar    1  UNL1       -0.0061
     28 C          59.4640   88.4265    8.3769 C.ar    1  UNL1       -0.0029
     29 C          59.1366   87.1567    7.6488 C.ar    1  UNL1       -0.0003
     30 C          60.0368   85.9639    7.7792 C.ar    1  UNL1       -0.0000
     31 C          61.2643   86.0410    8.6378 C.ar    1  UNL1       -0.0003
     32 C          61.5917   87.3109    9.3659 C.ar    1  UNL1       -0.0029
     33 C          59.2731   89.6864   11.8858 C.3     1  UNL1        0.0861
     34 N          59.9733   90.4492   10.8005 N.3     1  UNL1       -0.2924
     35 H          60.4239   91.2485   11.2460 H       1  UNL1        0.1236
     36 C          65.9753   93.1365   12.4032 C.3     1  UNL1        0.1391
     37 C          66.8316   93.4242   11.2058 C.ar    1  UNL1        0.0319
     38 C          67.7706   92.3763   10.6860 C.ar    1  UNL1        0.1379
     39 F          67.9226   91.3709   11.0883 F       1  UNL1       -0.2044
     40 C          68.6269   92.6639    9.4885 C.ar    1  UNL1        0.0294
     41 C          68.5442   93.9995    8.8108 C.ar    1  UNL1        0.0022
     42 C          67.6052   95.0474    9.3305 C.ar    1  UNL1        0.0037
     43 C          66.7489   94.7598   10.5280 C.ar    1  UNL1        0.0714
     44 C          65.8099   95.8077   11.0477 C.3     1  UNL1        0.4184
     45 F          64.8709   96.8556   11.5674 F       1  UNL1       -0.1659
     46 F          65.0600   95.7799    9.7490 F       1  UNL1       -0.1659
     47 F          66.5598   95.8356   12.3465 F       1  UNL1       -0.1659
@<TRIPOS>UNITY_ATOM_ATTR
23 1
charge -1
@<TRIPOS>BOND
     1    33    34    1
     2    34    26    1
     3    26    25    1
     4    25     1    1
     5     1     2   ar
     6     2     3    2
     7     2     4   ar
     8     4    10    1
     9    10    11   ar
    10    11    12   ar
    11    12    13   ar
    12    13    14   ar
    13    14    17    1
    14    17    18    1
    15    18    19    1
    16    19    20    1
    17    20    21    1
    18    21    22    1
    19    22    23   ar
    20    22    24   ar
    21    14    15   ar
    22    15    16    1
    23     4     5   ar
    24     5     6    1
    25     5     7   ar
    26     7    36    1
    27    36    37    1
    28    37    38   ar
    29    38    39    1
    30    38    40   ar
    31    40    41   ar
    32    41    42   ar
    33    42    43   ar
    34    43    44    1
    35    44    45    1
    36    44    46    1
    37    44    47    1
    38     7     8   ar
    39     8     9    2
    40    26    27    1
    41    27    28   ar
    42    28    29   ar
    43    29    30   ar
    44    30    31   ar
    45    31    32   ar
    46     8     1   ar
    47    32    27   ar
    48    15    10   ar
    49    43    37   ar
    50    34    35    1
@<TRIPOS>MOLECULE
*****
 47 50 0 0 0
SMALL
GASTEIGER

@<TRIPOS>ATOM
      1 N          63.5483   86.4317   13.3550 N.ar    1  UNL1       -0.2470
      2 C          63.0969   85.8986   12.0276 C.ar    1  UNL1        0.2654
      3 O          63.1249   84.4223   11.7635 O.2     1  UNL1       -0.2668
      4 C          62.6174   86.8418   10.9644 C.ar    1  UNL1        0.0703
      5 C          62.5894   88.3181   11.2286 C.ar    1  UNL1        0.0465
      6 C          62.2208   88.8974   10.3775 C.3     1  UNL1        0.0503
      7 N          63.0408   88.8512   12.5559 N.ar    1  UNL1       -0.2806
      8 C          63.5203   87.9080   13.6191 C.ar    1  UNL1        0.3338
      9 O          63.9718   88.4411   14.9466 O.2     1  UNL1       -0.2462
     10 C          62.1660   86.3087    9.6369 C.ar    1  UNL1        0.0362
     11 C          63.1135   85.5173    8.7850 C.ar    1  UNL1        0.0026
     12 C          62.6621   84.9842    7.4576 C.ar    1  UNL1        0.0033
     13 C          61.2631   85.2425    6.9821 C.ar    1  UNL1        0.0392
     14 C          60.3155   86.0339    7.8340 C.ar    1  UNL1        0.1659
     15 C          60.7670   86.5670    9.1615 C.ar    1  UNL1        0.1739
     16 F          59.8194   87.3584   10.0134 F       1  UNL1       -0.2010
     17 O          58.9165   86.2923    7.3586 O.3     1  UNL1       -0.4705
     18 C          58.4078   87.6995    7.2541 C.3     1  UNL1        0.2374
     19 C          59.3658   88.8270    7.0073 C.3     1  UNL1        0.1898
     20 O          58.8486   90.1760    6.6040 O.3     1  UNL1       -0.3438
     21 C          59.2655   90.7784    5.2951 C.3     1  UNL1        0.1836
     22 C          58.5476   91.9824    4.7610 C.2     1  UNL1        0.0801
     23 O          57.0595   92.0964    4.9120 O.co2   1  UNL1       -0.5466
     24 O          59.3177   93.0722    4.0761 O.co2   1  UNL1       -0.5466
     25 C          64.0278   85.4885   14.4183 C.3     1  UNL1        0.1337
     26 C          63.0591   84.5618   15.0912 C.3     1  UNL1        0.1000
     27 C          62.8909   83.1585   14.5885 C.ar    1  UNL1       -0.0061
     28 C          64.0772   82.3998   14.0718 C.ar    1  UNL1       -0.0029
     29 C          63.9090   80.9966   13.5691 C.ar    1  UNL1       -0.0003
     30 C          62.5546   80.3521   13.5832 C.ar    1  UNL1       -0.0000
     31 C          61.3683   81.1109   14.0999 C.ar    1  UNL1       -0.0003
     32 C          61.5365   82.5141   14.6025 C.ar    1  UNL1       -0.0029
     33 C          62.8166   86.0922   17.1767 C.3     1  UNL1        0.0861
     34 N          62.2584   85.0383   16.2667 N.3     1  UNL1       -0.2924
     35 H          61.3808   85.4035   15.8967 H       1  UNL1        0.1236
     36 C          63.0128   90.3275   12.8201 C.3     1  UNL1        0.1391
     37 C          64.1653   91.1877   12.3938 C.ar    1  UNL1        0.0319
     38 C          64.3165   91.5793   10.9536 C.ar    1  UNL1        0.1379
     39 F          63.6588   91.3044   10.1244 F       1  UNL1       -0.2044
     40 C          65.4690   92.4395   10.5273 C.ar    1  UNL1        0.0294
     41 C          66.4703   92.9081   11.5411 C.ar    1  UNL1        0.0022
     42 C          66.3192   92.5165   12.9811 C.ar    1  UNL1        0.0037
     43 C          65.1667   91.6563   13.4075 C.ar    1  UNL1        0.0714
     44 C          65.0156   91.2647   14.8475 C.3     1  UNL1        0.4184
     45 F          64.8645   90.8731   16.2876 F       1  UNL1       -0.1659
     46 F          66.4588   90.8581   14.8884 F       1  UNL1       -0.1659
     47 F          63.5724   91.6713   14.8067 F       1  UNL1       -0.1659
@<TRIPOS>UNITY_ATOM_ATTR
23 1
charge -1
@<TRIPOS>BOND
     1    33    34    1
     2    34    26    1
     3    26    25    1
     4    25     1    1
     5     1     2   ar
     6     2     3    2
     7     2     4   ar
     8     4    10    1
     9    10    11   ar
    10    11    12   ar
    11    12    13   ar
    12    13    14   ar
    13    14    17    1
    14    17    18    1
    15    18    19    1
    16    19    20    1
    17    20    21    1
    18    21    22    1
    19    22    23   ar
    20    22    24   ar
    21    14    15   ar
    22    15    16    1
    23     4     5   ar
    24     5     6    1
    25     5     7   ar
    26     7    36    1
    27    36    37    1
    28    37    38   ar
    29    38    39    1
    30    38    40   ar
    31    40    41   ar
    32    41    42   ar
    33    42    43   ar
    34    43    44    1
    35    44    45    1
    36    44    46    1
    37    44    47    1
    38     7     8   ar
    39     8     9    2
    40    26    27    1
    41    27    28   ar
    42    28    29   ar
    43    29    30   ar
    44    30    31   ar
    45    31    32   ar
    46     8     1   ar
    47    32    27   ar
    48    15    10   ar
    49    43    37   ar
    50    34    35    1
@<TRIPOS>MOLECULE
*****
 47 50 0 0 0
SMALL
GASTEIGER

@<TRIPOS>ATOM
      1 N          61.7353   87.2351   11.8693 N.ar    1  UNL1       -0.2470
      2 C          62.1333   88.3878   12.7428 C.ar    1  UNL1        0.2654
      3 O          61.4106   89.6975   12.6318 O.2     1  UNL1       -0.2668
      4 C          63.2540   88.2307   13.7272 C.ar    1  UNL1        0.0703
      5 C          63.9768   86.9210   13.8382 C.ar    1  UNL1        0.0465
      6 C          64.7710   86.9337   14.5897 C.3     1  UNL1        0.0503
      7 N          63.5788   85.7684   12.9647 N.ar    1  UNL1       -0.2806
      8 C          62.4581   85.9254   11.9802 C.ar    1  UNL1        0.3338
      9 O          62.0600   84.7728   11.1067 O.2     1  UNL1       -0.2462
     10 C          63.6521   89.3833   14.6008 C.ar    1  UNL1        0.0362
     11 C          63.2284   89.4154   16.0394 C.ar    1  UNL1        0.0026
     12 C          63.6264   90.5680   16.9129 C.ar    1  UNL1        0.0033
     13 C          64.4481   91.6885   16.3479 C.ar    1  UNL1        0.0392
     14 C          64.8718   91.6565   14.9094 C.ar    1  UNL1        0.1659
     15 C          64.4738   90.5038   14.0358 C.ar    1  UNL1        0.1739
     16 F          64.8974   90.4717   12.5972 F       1  UNL1       -0.2010
     17 O          65.6935   92.7770   14.3443 O.3     1  UNL1       -0.4705
     18 C          67.1864   92.6505   14.2738 C.3     1  UNL1        0.2374
     19 C          67.8314   92.0454   13.0622 C.3     1  UNL1        0.1898
     20 O          67.5625   92.6205   11.7032 O.3     1  UNL1       -0.3438
     21 C          68.1258   91.9553   10.4825 C.3     1  UNL1        0.1836
     22 C          68.5233   92.7806    9.2946 C.2     1  UNL1        0.0801
     23 O          68.5527   94.2769    9.3969 O.co2   1  UNL1       -0.5466
     24 O          68.8914   92.1097    8.0045 O.co2   1  UNL1       -0.5466
     25 C          60.6145   87.3922   10.8847 C.3     1  UNL1        0.1337
     26 C          60.9152   87.7178    9.4517 C.3     1  UNL1        0.1000
     27 C          61.2899   86.6235    8.4966 C.ar    1  UNL1       -0.0061
     28 C          60.2610   86.0579    7.5631 C.ar    1  UNL1       -0.0029
     29 C          60.6357   84.9637    6.6080 C.ar    1  UNL1       -0.0003
     30 C          62.0393   84.4350    6.5865 C.ar    1  UNL1       -0.0000
     31 C          63.0682   85.0006    7.5200 C.ar    1  UNL1       -0.0003
     32 C          62.6935   86.0948    8.4751 C.ar    1  UNL1       -0.0029
     33 C          60.2837   90.2029    9.8708 C.3     1  UNL1        0.0861
     34 N          60.8412   89.1377    8.9737 N.3     1  UNL1       -0.2924
     35 H          61.7929   89.4192    8.7385 H       1  UNL1        0.1236
     36 C          64.3015   84.4586   13.0757 C.3     1  UNL1        0.1391
     37 C          63.5246   83.1799   13.1818 C.ar    1  UNL1        0.0319
     38 C          63.6102   82.1574   12.0876 C.ar    1  UNL1        0.1379
     39 F          64.1988   82.2247   11.1685 F       1  UNL1       -0.2044
     40 C          62.8333   80.8787   12.1937 C.ar    1  UNL1        0.0294
     41 C          61.9708   80.6224   13.3939 C.ar    1  UNL1        0.0022
     42 C          61.8852   81.6449   14.4880 C.ar    1  UNL1        0.0037
     43 C          62.6622   82.9237   14.3820 C.ar    1  UNL1        0.0714
     44 C          62.5766   83.9462   15.4761 C.3     1  UNL1        0.4184
     45 F          62.4910   84.9687   16.5702 F       1  UNL1       -0.1659
     46 F          61.2587   84.4152   14.9347 F       1  UNL1       -0.1659
     47 F          63.8944   83.4772   16.0175 F       1  UNL1       -0.1659
@<TRIPOS>UNITY_ATOM_ATTR
23 1
charge -1
@<TRIPOS>BOND
     1    33    34    1
     2    34    26    1
     3    26    25    1
     4    25     1    1
     5     1     2   ar
     6     2     3    2
     7     2     4   ar
     8     4    10    1
     9    10    11   ar
    10    11    12   ar
    11    12    13   ar
    12    13    14   ar
    13    14    17    1
    14    17    18    1
    15    18    19    1
    16    19    20    1
    17    20    21    1
    18    21    22    1
    19    22    23   ar
    20    22    24   ar
    21    14    15   ar
    22    15    16    1
    23     4     5   ar
    24     5     6    1
    25     5     7   ar
    26     7    36    1
    27    36    37    1
    28    37    38   ar
    29    38    39    1
    30    38    40   ar
    31    40    41   ar
    32    41    42   ar
    33    42    43   ar
    34    43    44    1
    35    44    45    1
    36    44    46    1
    37    44    47    1
    38     7     8   ar
    39     8     9    2
    40    26    27    1
    41    27    28   ar
    42    28    29   ar
    43    29    30   ar
    44    30    31   ar
    45    31    32   ar
    46     8     1   ar
    47    32    27   ar
    48    15    10   ar
    49    43    37   ar
    50    34    35    1
@<TRIPOS>MOLECULE
*****
 47 50 0 0 0
SMALL
GASTEIGER

@<TRIPOS>ATOM
      1 N          63.5846   86.1749   13.4811 N.ar    1  UNL1       -0.2470
      2 C          63.1390   85.7102   12.1264 C.ar    1  UNL1        0.2654
      3 O          63.1507   84.2476   11.7938 O.2     1  UNL1       -0.2668
      4 C          62.6816   86.7082   11.1042 C.ar    1  UNL1        0.0703
      5 C          62.6699   88.1708   11.4368 C.ar    1  UNL1        0.0465
      6 C          62.3166   88.7939   10.6105 C.3     1  UNL1        0.0503
      7 N          63.1155   88.6355   12.7915 N.ar    1  UNL1       -0.2806
      8 C          63.5729   87.6375   13.8137 C.ar    1  UNL1        0.3338
      9 O          64.0186   88.1022   15.1685 O.2     1  UNL1       -0.2462
     10 C          62.2359   86.2435    9.7493 C.ar    1  UNL1        0.0362
     11 C          63.1885   85.5000    8.8606 C.ar    1  UNL1        0.0026
     12 C          62.7428   85.0353    7.5059 C.ar    1  UNL1        0.0033
     13 C          61.3446   85.3142    7.0397 C.ar    1  UNL1        0.0392
     14 C          60.3920   86.0577    7.9284 C.ar    1  UNL1        0.1659
     15 C          60.8377   86.5223    9.2833 C.ar    1  UNL1        0.1739
     16 F          59.8851   87.2658   10.1720 F       1  UNL1       -0.2010
     17 O          58.9938   86.3365    7.4624 O.3     1  UNL1       -0.4705
     18 C          58.4876   87.7476    7.4117 C.3     1  UNL1        0.2374
     19 C          59.4210   88.8670    7.0570 C.3     1  UNL1        0.1898
     20 O          58.8712   90.1867    6.6031 O.3     1  UNL1       -0.3438
     21 C          59.3526   90.7987    5.3211 C.3     1  UNL1        0.1836
     22 C          58.5442   91.8704    4.6517 C.2     1  UNL1        0.0801
     23 O          57.0903   92.0309    4.9837 O.co2   1  UNL1       -0.5466
     24 O          59.1898   92.7816    3.6502 O.co2   1  UNL1       -0.5466
     25 C          64.0420   85.1770   14.5034 C.3     1  UNL1        0.1337
     26 C          63.0490   84.2584   15.1515 C.3     1  UNL1        0.1000
     27 C          62.8173   82.8872   14.5890 C.ar    1  UNL1       -0.0061
     28 C          61.4313   82.3147   14.5555 C.ar    1  UNL1       -0.0029
     29 C          61.1997   80.9436   13.9931 C.ar    1  UNL1       -0.0003
     30 C          62.3541   80.1450   13.4642 C.ar    1  UNL1       -0.0000
     31 C          63.7401   80.7176   13.4977 C.ar    1  UNL1       -0.0003
     32 C          63.9717   82.0887   14.0601 C.ar    1  UNL1       -0.0029
     33 C          62.7669   85.8936   17.1507 C.3     1  UNL1        0.0861
     34 N          62.2877   84.7109   16.3621 N.3     1  UNL1       -0.2924
     35 H          61.3413   84.9288   16.0503 H       1  UNL1        0.1236
     36 C          63.1038   90.0981   13.1241 C.3     1  UNL1        0.1391
     37 C          64.3890   90.8710   13.1531 C.ar    1  UNL1        0.0319
     38 C          65.2663   90.8221   14.3689 C.ar    1  UNL1        0.1379
     39 F          65.0821   90.2647   15.2914 F       1  UNL1       -0.2044
     40 C          66.5515   91.5950   14.3979 C.ar    1  UNL1        0.0294
     41 C          66.9595   92.4167   13.2112 C.ar    1  UNL1        0.0022
     42 C          66.0823   92.4656   11.9955 C.ar    1  UNL1        0.0037
     43 C          64.7970   91.6927   11.9664 C.ar    1  UNL1        0.0714
     44 C          63.9198   91.7416   10.7507 C.3     1  UNL1        0.4184
     45 F          63.0426   91.7905    9.5349 F       1  UNL1       -0.1659
     46 F          65.1363   91.8049    9.8755 F       1  UNL1       -0.1659
     47 F          62.7033   91.6783   11.6259 F       1  UNL1       -0.1659
@<TRIPOS>UNITY_ATOM_ATTR
23 1
charge -1
@<TRIPOS>BOND
     1    33    34    1
     2    34    26    1
     3    26    25    1
     4    25     1    1
     5     1     2   ar
     6     2     3    2
     7     2     4   ar
     8     4    10    1
     9    10    11   ar
    10    11    12   ar
    11    12    13   ar
    12    13    14   ar
    13    14    17    1
    14    17    18    1
    15    18    19    1
    16    19    20    1
    17    20    21    1
    18    21    22    1
    19    22    23   ar
    20    22    24   ar
    21    14    15   ar
    22    15    16    1
    23     4     5   ar
    24     5     6    1
    25     5     7   ar
    26     7    36    1
    27    36    37    1
    28    37    38   ar
    29    38    39    1
    30    38    40   ar
    31    40    41   ar
    32    41    42   ar
    33    42    43   ar
    34    43    44    1
    35    44    45    1
    36    44    46    1
    37    44    47    1
    38     7     8   ar
    39     8     9    2
    40    26    27    1
    41    27    28   ar
    42    28    29   ar
    43    29    30   ar
    44    30    31   ar
    45    31    32   ar
    46     8     1   ar
    47    32    27   ar
    48    15    10   ar
    49    43    37   ar
    50    34    35    1
@<TRIPOS>MOLECULE
*****
 47 50 0 0 0
SMALL
GASTEIGER

@<TRIPOS>ATOM
      1 N          63.4144   89.9924   11.5083 N.ar    1  UNL1       -0.2470
      2 C          63.2254   88.9783   12.5973 C.ar    1  UNL1        0.2654
      3 O          62.4736   87.7105   12.3193 O.2     1  UNL1       -0.2668
      4 C          63.7883   89.2321   13.9643 C.ar    1  UNL1        0.0703
      5 C          64.5401   90.5000   14.2423 C.ar    1  UNL1        0.0465
      6 C          64.8991   90.5665   15.2731 C.3     1  UNL1        0.0503
      7 N          64.7291   91.5140   13.1533 N.ar    1  UNL1       -0.2806
      8 C          64.1663   91.2602   11.7863 C.ar    1  UNL1        0.3338
      9 O          64.3553   92.2743   10.6972 O.2     1  UNL1       -0.2462
     10 C          63.5993   88.2181   15.0534 C.ar    1  UNL1        0.0362
     11 C          62.9423   88.6151   16.3421 C.ar    1  UNL1        0.0026
     12 C          62.7533   87.6011   17.4311 C.ar    1  UNL1        0.0033
     13 C          63.2213   86.1900   17.2315 C.ar    1  UNL1        0.0392
     14 C          63.8782   85.7929   15.9428 C.ar    1  UNL1        0.1659
     15 C          64.0672   86.8070   14.8537 C.ar    1  UNL1        0.1739
     16 F          64.7242   86.4100   13.5650 F       1  UNL1       -0.2010
     17 O          64.3462   84.3819   15.7431 O.3     1  UNL1       -0.4705
     18 C          63.5422   83.4374   14.8997 C.3     1  UNL1        0.2374
     19 C          63.8318   83.3088   13.4335 C.3     1  UNL1        0.1898
     20 O          62.7041   83.2955   12.4446 O.3     1  UNL1       -0.3438
     21 C          62.7669   84.1648   11.2238 C.3     1  UNL1        0.1836
     22 C          63.6381   83.7722   10.0675 C.2     1  UNL1        0.0801
     23 O          64.6507   82.6774   10.2292 O.co2   1  UNL1       -0.5466
     24 O          63.4967   84.4744    8.7496 O.co2   1  UNL1       -0.5466
     25 C          62.8516   89.7386   10.1412 C.3     1  UNL1        0.1337
     26 C          61.3662   89.7160    9.9340 C.3     1  UNL1        0.1000
     27 C          60.7350   88.6036    9.1502 C.ar    1  UNL1       -0.0061
     28 C          61.1641   87.1852    9.3824 C.ar    1  UNL1       -0.0029
     29 C          60.5330   86.0729    8.5986 C.ar    1  UNL1       -0.0003
     30 C          59.4727   86.3790    7.5826 C.ar    1  UNL1       -0.0000
     31 C          59.0436   87.7974    7.3505 C.ar    1  UNL1       -0.0003
     32 C          59.6748   88.9097    8.1342 C.ar    1  UNL1       -0.0029
     33 C          59.5521   90.4979   11.6216 C.3     1  UNL1        0.0861
     34 N          60.5118   90.8058   10.5106 N.3     1  UNL1       -0.2924
     35 H          61.1465   91.5237   10.8602 H       1  UNL1        0.1236
     36 C          65.4809   92.7819   13.4314 C.3     1  UNL1        0.1391
     37 C          66.7999   92.7308   14.1439 C.ar    1  UNL1        0.0319
     38 C          66.8662   92.9960   15.6189 C.ar    1  UNL1        0.1379
     39 F          66.0310   93.2358   16.2826 F       1  UNL1       -0.2044
     40 C          68.1852   92.9450   16.3314 C.ar    1  UNL1        0.0294
     41 C          69.4377   92.6288   15.5692 C.ar    1  UNL1        0.0022
     42 C          69.3714   92.3636   14.0943 C.ar    1  UNL1        0.0037
     43 C          68.0524   92.4146   13.3817 C.ar    1  UNL1        0.0714
     44 C          67.9861   92.1494   11.9068 C.3     1  UNL1        0.4184
     45 F          67.9197   91.8842   10.4320 F       1  UNL1       -0.1659
     46 F          67.1363   93.3720   11.7252 F       1  UNL1       -0.1659
     47 F          68.8358   90.9268   12.0884 F       1  UNL1       -0.1659
@<TRIPOS>UNITY_ATOM_ATTR
23 1
charge -1
@<TRIPOS>BOND
     1    33    34    1
     2    34    26    1
     3    26    25    1
     4    25     1    1
     5     1     2   ar
     6     2     3    2
     7     2     4   ar
     8     4    10    1
     9    10    11   ar
    10    11    12   ar
    11    12    13   ar
    12    13    14   ar
    13    14    17    1
    14    17    18    1
    15    18    19    1
    16    19    20    1
    17    20    21    1
    18    21    22    1
    19    22    23   ar
    20    22    24   ar
    21    14    15   ar
    22    15    16    1
    23     4     5   ar
    24     5     6    1
    25     5     7   ar
    26     7    36    1
    27    36    37    1
    28    37    38   ar
    29    38    39    1
    30    38    40   ar
    31    40    41   ar
    32    41    42   ar
    33    42    43   ar
    34    43    44    1
    35    44    45    1
    36    44    46    1
    37    44    47    1
    38     7     8   ar
    39     8     9    2
    40    26    27    1
    41    27    28   ar
    42    28    29   ar
    43    29    30   ar
    44    30    31   ar
    45    31    32   ar
    46     8     1   ar
    47    32    27   ar
    48    15    10   ar
    49    43    37   ar
    50    34    35    1
@<TRIPOS>MOLECULE
*****
 47 50 0 0 0
SMALL
GASTEIGER

@<TRIPOS>ATOM
      1 N          64.9934   91.5482   12.9444 N.ar    1  UNL1       -0.2470
      2 C          64.7973   90.5534   14.0497 C.ar    1  UNL1        0.2654
      3 O          65.5470   90.7080   15.3397 O.2     1  UNL1       -0.2668
      4 C          63.8516   89.4039   13.8650 C.ar    1  UNL1        0.0703
      5 C          63.1019   89.2492   12.5750 C.ar    1  UNL1        0.0465
      6 C          62.4460   88.3743   12.5644 C.3     1  UNL1        0.0503
      7 N          63.2980   90.2440   11.4697 N.ar    1  UNL1       -0.2806
      8 C          64.2438   91.3935   11.6544 C.ar    1  UNL1        0.3338
      9 O          64.4399   92.3885   10.5490 O.2     1  UNL1       -0.2462
     10 C          63.6554   88.4090   14.9704 C.ar    1  UNL1        0.0362
     11 C          63.1042   88.8553   16.2921 C.ar    1  UNL1        0.0026
     12 C          62.9080   87.8605   17.3974 C.ar    1  UNL1        0.0033
     13 C          63.2632   86.4192   17.1811 C.ar    1  UNL1        0.0392
     14 C          63.8144   85.9729   15.8594 C.ar    1  UNL1        0.1659
     15 C          64.0106   86.9678   14.7540 C.ar    1  UNL1        0.1739
     16 F          64.5618   86.5214   13.4323 F       1  UNL1       -0.2010
     17 O          64.1695   84.5317   15.6430 O.3     1  UNL1       -0.4705
     18 C          63.1109   83.5521   15.2313 C.3     1  UNL1        0.2374
     19 C          63.4596   82.4066   14.3277 C.3     1  UNL1        0.1898
     20 O          62.4608   81.9125   13.3236 O.3     1  UNL1       -0.3438
     21 C          62.7840   81.9579   11.8595 C.3     1  UNL1        0.1836
     22 C          63.5728   83.1050   11.3008 C.2     1  UNL1        0.0801
     23 O          64.8105   82.8422   10.4952 O.co2   1  UNL1       -0.5466
     24 O          63.1239   84.5148   11.5477 O.co2   1  UNL1       -0.5466
     25 C          65.9392   92.6978   13.1290 C.3     1  UNL1        0.1337
     26 C          67.3314   92.6199   12.5760 C.3     1  UNL1        0.1000
     27 C          67.5967   93.0156   11.1537 C.ar    1  UNL1       -0.0061
     28 C          68.3204   92.0753   10.2361 C.ar    1  UNL1       -0.0029
     29 C          68.5857   92.4710    8.8138 C.ar    1  UNL1       -0.0003
     30 C          68.1272   93.8071    8.3091 C.ar    1  UNL1       -0.0000
     31 C          67.4035   94.7474    9.2267 C.ar    1  UNL1       -0.0003
     32 C          67.1382   94.3517   10.6489 C.ar    1  UNL1       -0.0029
     33 C          68.5156   92.5545   14.8877 C.3     1  UNL1        0.0861
     34 N          68.4583   92.1462   13.4454 N.3     1  UNL1       -0.2924
     35 H          68.4345   91.1266   13.4287 H       1  UNL1        0.1236
     36 C          62.5483   90.0894   10.1797 C.3     1  UNL1        0.1391
     37 C          61.7359   88.8539    9.9279 C.ar    1  UNL1        0.0319
     38 C          62.3795   87.6446    9.3168 C.ar    1  UNL1        0.1379
     39 F          63.4244   87.5381    9.0127 F       1  UNL1       -0.2044
     40 C          61.5671   86.4091    9.0650 C.ar    1  UNL1        0.0294
     41 C          60.1109   86.3829    9.4242 C.ar    1  UNL1        0.0022
     42 C          59.4673   87.5921   10.0353 C.ar    1  UNL1        0.0037
     43 C          60.2798   88.8277   10.2871 C.ar    1  UNL1        0.0714
     44 C          59.6361   90.0369   10.8982 C.3     1  UNL1        0.4184
     45 F          58.9925   91.2462   11.5092 F       1  UNL1       -0.1659
     46 F          59.7570   90.7620    9.5906 F       1  UNL1       -0.1659
     47 F          59.5152   89.3119   12.2057 F       1  UNL1       -0.1659
@<TRIPOS>UNITY_ATOM_ATTR
23 1
charge -1
@<TRIPOS>BOND
     1    33    34    1
     2    34    26    1
     3    26    25    1
     4    25     1    1
     5     1     2   ar
     6     2     3    2
     7     2     4   ar
     8     4    10    1
     9    10    11   ar
    10    11    12   ar
    11    12    13   ar
    12    13    14   ar
    13    14    17    1
    14    17    18    1
    15    18    19    1
    16    19    20    1
    17    20    21    1
    18    21    22    1
    19    22    23   ar
    20    22    24   ar
    21    14    15   ar
    22    15    16    1
    23     4     5   ar
    24     5     6    1
    25     5     7   ar
    26     7    36    1
    27    36    37    1
    28    37    38   ar
    29    38    39    1
    30    38    40   ar
    31    40    41   ar
    32    41    42   ar
    33    42    43   ar
    34    43    44    1
    35    44    45    1
    36    44    46    1
    37    44    47    1
    38     7     8   ar
    39     8     9    2
    40    26    27    1
    41    27    28   ar
    42    28    29   ar
    43    29    30   ar
    44    30    31   ar
    45    31    32   ar
    46     8     1   ar
    47    32    27   ar
    48    15    10   ar
    49    43    37   ar
    50    34    35    1
@<TRIPOS>MOLECULE
*****
 47 50 0 0 0
SMALL
GASTEIGER

@<TRIPOS>ATOM
      1 N          63.7546   86.5185   13.2596 N.ar    1  UNL1       -0.2470
      2 C          64.0686   87.6128   14.2363 C.ar    1  UNL1        0.2654
      3 O          64.5649   87.2722   15.6102 O.2     1  UNL1       -0.2668
      4 C          63.8864   89.0477   13.8390 C.ar    1  UNL1        0.0703
      5 C          63.3901   89.3883   12.4651 C.ar    1  UNL1        0.0465
      6 C          63.2998   90.4652   12.2983 C.3     1  UNL1        0.0503
      7 N          63.0760   88.2940   11.4884 N.ar    1  UNL1       -0.2806
      8 C          63.2582   86.8591   11.8857 C.ar    1  UNL1        0.3338
      9 O          62.9442   85.7648   10.9090 O.2     1  UNL1       -0.2462
     10 C          64.2005   90.1420   14.8157 C.ar    1  UNL1        0.0362
     11 C          63.3119   90.3650   16.0034 C.ar    1  UNL1        0.0026
     12 C          63.6260   91.4593   16.9800 C.ar    1  UNL1        0.0033
     13 C          64.8286   92.3307   16.7690 C.ar    1  UNL1        0.0392
     14 C          65.7172   92.1076   15.5813 C.ar    1  UNL1        0.1659
     15 C          65.4031   91.0133   14.6046 C.ar    1  UNL1        0.1739
     16 F          66.2917   90.7903   13.4168 F       1  UNL1       -0.2010
     17 O          66.9198   92.9789   15.3702 O.3     1  UNL1       -0.4705
     18 C          66.8930   94.0535   14.3241 C.3     1  UNL1        0.2374
     19 C          66.2058   93.8076   13.0136 C.3     1  UNL1        0.1898
     20 O          67.0019   93.3715   11.8194 O.3     1  UNL1       -0.3438
     21 C          66.5997   93.8196   10.4456 C.3     1  UNL1        0.1836
     22 C          67.6482   94.0847    9.4062 C.2     1  UNL1        0.0801
     23 O          67.3037   94.8727    8.1772 O.co2   1  UNL1       -0.5466
     24 O          69.0413   93.5619    9.5958 O.co2   1  UNL1       -0.5466
     25 C          63.9368   85.0836   13.6569 C.3     1  UNL1        0.1337
     26 C          62.7534   84.2683   14.0867 C.3     1  UNL1        0.1000
     27 C          62.5789   82.8702   13.5719 C.ar    1  UNL1       -0.0061
     28 C          61.8655   81.8475   14.4057 C.ar    1  UNL1       -0.0029
     29 C          61.6911   80.4495   13.8908 C.ar    1  UNL1       -0.0003
     30 C          62.2299   80.0742   12.5422 C.ar    1  UNL1       -0.0000
     31 C          62.9432   81.0969   11.7084 C.ar    1  UNL1       -0.0003
     32 C          63.1177   82.4949   12.2233 C.ar    1  UNL1       -0.0029
     33 C          62.1514   85.2257   16.4258 C.3     1  UNL1        0.0861
     34 N          61.7444   84.8510   15.0315 N.3     1  UNL1       -0.2924
     35 H          61.3846   85.6983   14.5921 H       1  UNL1        0.1236
     36 C          62.5797   88.6346   10.1145 C.3     1  UNL1        0.1391
     37 C          61.4525   87.8520    9.5088 C.ar    1  UNL1        0.0319
     38 C          61.7453   86.7225    8.5661 C.ar    1  UNL1        0.1379
     39 F          62.7298   86.3735    8.2428 F       1  UNL1       -0.2044
     40 C          60.6181   85.9399    7.9604 C.ar    1  UNL1        0.0294
     41 C          59.1982   86.2866    8.2974 C.ar    1  UNL1        0.0022
     42 C          58.9054   87.4160    9.2401 C.ar    1  UNL1        0.0037
     43 C          60.0326   88.1987    9.8458 C.ar    1  UNL1        0.0714
     44 C          59.7398   89.3281   10.7885 C.3     1  UNL1        0.4184
     45 F          59.4471   90.4575   11.7312 F       1  UNL1       -0.1659
     46 F          59.5960   88.3496   11.9162 F       1  UNL1       -0.1659
     47 F          59.8837   90.3067    9.6608 F       1  UNL1       -0.1659
@<TRIPOS>UNITY_ATOM_ATTR
23 1
charge -1
@<TRIPOS>BOND
     1    33    34    1
     2    34    26    1
     3    26    25    1
     4    25     1    1
     5     1     2   ar
     6     2     3    2
     7     2     4   ar
     8     4    10    1
     9    10    11   ar
    10    11    12   ar
    11    12    13   ar
    12    13    14   ar
    13    14    17    1
    14    17    18    1
    15    18    19    1
    16    19    20    1
    17    20    21    1
    18    21    22    1
    19    22    23   ar
    20    22    24   ar
    21    14    15   ar
    22    15    16    1
    23     4     5   ar
    24     5     6    1
    25     5     7   ar
    26     7    36    1
    27    36    37    1
    28    37    38   ar
    29    38    39    1
    30    38    40   ar
    31    40    41   ar
    32    41    42   ar
    33    42    43   ar
    34    43    44    1
    35    44    45    1
    36    44    46    1
    37    44    47    1
    38     7     8   ar
    39     8     9    2
    40    26    27    1
    41    27    28   ar
    42    28    29   ar
    43    29    30   ar
    44    30    31   ar
    45    31    32   ar
    46     8     1   ar
    47    32    27   ar
    48    15    10   ar
    49    43    37   ar
    50    34    35    1
@<TRIPOS>MOLECULE
*****
 47 50 0 0 0
SMALL
GASTEIGER

@<TRIPOS>ATOM
      1 N          61.6767   87.1162   11.7714 N.ar    1  UNL1       -0.2470
      2 C          62.0787   88.3012   12.5984 C.ar    1  UNL1        0.2654
      3 O          61.3484   89.6028   12.4486 O.2     1  UNL1       -0.2668
      4 C          63.2109   88.1846   13.5754 C.ar    1  UNL1        0.0703
      5 C          63.9412   86.8830   13.7252 C.ar    1  UNL1        0.0465
      6 C          64.7436   86.9262   14.4669 C.3     1  UNL1        0.0503
      7 N          63.5392   85.6979   12.8982 N.ar    1  UNL1       -0.2806
      8 C          62.4070   85.8145   11.9213 C.ar    1  UNL1        0.3338
      9 O          62.0049   84.6295   11.0941 O.2     1  UNL1       -0.2462
     10 C          63.6130   89.3697   14.4025 C.ar    1  UNL1        0.0362
     11 C          63.3006   89.4012   15.8693 C.ar    1  UNL1        0.0026
     12 C          63.7026   90.5862   16.6964 C.ar    1  UNL1        0.0033
     13 C          64.4170   91.7397   16.0567 C.ar    1  UNL1        0.0392
     14 C          64.7293   91.7082   14.5899 C.ar    1  UNL1        0.1659
     15 C          64.3273   90.5231   13.7628 C.ar    1  UNL1        0.1739
     16 F          64.6397   90.4916   12.2960 F       1  UNL1       -0.2010
     17 O          65.4437   92.8616   13.9503 O.3     1  UNL1       -0.4705
     18 C          65.9774   92.7323   12.5544 C.3     1  UNL1        0.2374
     19 C          67.4219   92.3944   12.3321 C.3     1  UNL1        0.1898
     20 O          68.2135   91.7327   13.4208 O.3     1  UNL1       -0.3438
     21 C          69.1224   92.5502   14.2900 C.3     1  UNL1        0.1836
     22 C          68.6385   93.0520   15.6182 C.2     1  UNL1        0.0801
     23 O          67.7518   92.1906   16.4677 O.co2   1  UNL1       -0.5466
     24 O          69.0414   94.4153   16.0969 O.co2   1  UNL1       -0.5466
     25 C          60.5444   87.2327   10.7944 C.3     1  UNL1        0.1337
     26 C          60.8238   87.5659    9.3588 C.3     1  UNL1        0.1000
     27 C          61.2812   86.4932    8.4153 C.ar    1  UNL1       -0.0061
     28 C          62.7134   86.0473    8.4241 C.ar    1  UNL1       -0.0029
     29 C          63.1707   84.9747    7.4806 C.ar    1  UNL1       -0.0003
     30 C          62.1959   84.3481    6.5281 C.ar    1  UNL1       -0.0000
     31 C          60.7638   84.7940    6.5193 C.ar    1  UNL1       -0.0003
     32 C          60.3065   85.8666    7.4628 C.ar    1  UNL1       -0.0029
     33 C          59.7614   89.2469    7.6869 C.3     1  UNL1        0.0861
     34 N          60.6458   88.9716    8.8668 N.3     1  UNL1       -0.2924
     35 H          60.2721   89.5117    9.6472 H       1  UNL1        0.1236
     36 C          64.2695   84.3963   13.0480 C.3     1  UNL1        0.1391
     37 C          63.5000   83.1152   13.1773 C.ar    1  UNL1        0.0319
     38 C          63.5851   82.0770   12.0979 C.ar    1  UNL1        0.1379
     39 F          64.1682   82.1339   11.1746 F       1  UNL1       -0.2044
     40 C          62.8156   80.7960   12.2271 C.ar    1  UNL1        0.0294
     41 C          61.9612   80.5529   13.4358 C.ar    1  UNL1        0.0022
     42 C          61.8761   81.5910   14.5152 C.ar    1  UNL1        0.0037
     43 C          62.6456   82.8722   14.3859 C.ar    1  UNL1        0.0714
     44 C          62.5605   83.9103   15.4653 C.3     1  UNL1        0.4184
     45 F          62.4755   84.9483   16.5447 F       1  UNL1       -0.1659
     46 F          63.8654   83.4311   16.0290 F       1  UNL1       -0.1659
     47 F          61.2557   84.3894   14.9017 F       1  UNL1       -0.1659
@<TRIPOS>UNITY_ATOM_ATTR
23 1
charge -1
@<TRIPOS>BOND
     1    33    34    1
     2    34    26    1
     3    26    25    1
     4    25     1    1
     5     1     2   ar
     6     2     3    2
     7     2     4   ar
     8     4    10    1
     9    10    11   ar
    10    11    12   ar
    11    12    13   ar
    12    13    14   ar
    13    14    17    1
    14    17    18    1
    15    18    19    1
    16    19    20    1
    17    20    21    1
    18    21    22    1
    19    22    23   ar
    20    22    24   ar
    21    14    15   ar
    22    15    16    1
    23     4     5   ar
    24     5     6    1
    25     5     7   ar
    26     7    36    1
    27    36    37    1
    28    37    38   ar
    29    38    39    1
    30    38    40   ar
    31    40    41   ar
    32    41    42   ar
    33    42    43   ar
    34    43    44    1
    35    44    45    1
    36    44    46    1
    37    44    47    1
    38     7     8   ar
    39     8     9    2
    40    26    27    1
    41    27    28   ar
    42    28    29   ar
    43    29    30   ar
    44    30    31   ar
    45    31    32   ar
    46     8     1   ar
    47    32    27   ar
    48    15    10   ar
    49    43    37   ar
    50    34    35    1
@<TRIPOS>MOLECULE
*****
 47 50 0 0 0
SMALL
GASTEIGER

@<TRIPOS>ATOM
      1 N          61.3112   88.4369   11.4404 N.ar    1  UNL1       -0.2470
      2 C          61.8837   87.1831   12.0320 C.ar    1  UNL1        0.2654
      3 O          61.3143   85.8477   11.6545 O.2     1  UNL1       -0.2668
      4 C          63.0257   87.2646   13.0012 C.ar    1  UNL1        0.0703
      5 C          63.5951   88.6000   13.3787 C.ar    1  UNL1        0.0465
      6 C          64.4215   88.5261   14.0909 C.3     1  UNL1        0.0503
      7 N          63.0226   89.8538   12.7870 N.ar    1  UNL1       -0.2806
      8 C          61.8807   89.7723   11.8179 C.ar    1  UNL1        0.3338
      9 O          61.3081   91.0262   11.2262 O.2     1  UNL1       -0.2462
     10 C          63.5982   86.0108   13.5929 C.ar    1  UNL1        0.0362
     11 C          63.8115   85.9100   15.0742 C.ar    1  UNL1        0.0026
     12 C          64.3840   84.6562   15.6660 C.ar    1  UNL1        0.0033
     13 C          64.7433   83.5031   14.7763 C.ar    1  UNL1        0.0392
     14 C          64.5300   83.6039   13.2950 C.ar    1  UNL1        0.1659
     15 C          63.9575   84.8577   12.7033 C.ar    1  UNL1        0.1739
     16 F          63.7442   84.9585   11.2220 F       1  UNL1       -0.2010
     17 O          64.8893   82.4508   12.4054 O.3     1  UNL1       -0.4705
     18 C          64.0261   82.1171   11.2250 C.3     1  UNL1        0.2374
     19 C          62.7352   81.3794   11.4244 C.3     1  UNL1        0.1898
     20 O          62.7130   80.1084   12.2205 O.3     1  UNL1       -0.3438
     21 C          62.3888   80.1460   13.6846 C.3     1  UNL1        0.1836
     22 C          61.3137   81.0611   14.1914 C.2     1  UNL1        0.0801
     23 O          61.6482   82.4730   14.5717 O.co2   1  UNL1       -0.5466
     24 O          59.9040   80.5642   14.3179 O.co2   1  UNL1       -0.5466
     25 C          60.1692   88.3554   10.4712 C.3     1  UNL1        0.1337
     26 C          60.4397   88.2886    8.9973 C.3     1  UNL1        0.1000
     27 C          61.0339   87.0478    8.3992 C.ar    1  UNL1       -0.0061
     28 C          62.4544   86.6745    8.7037 C.ar    1  UNL1       -0.0029
     29 C          63.0484   85.4338    8.1057 C.ar    1  UNL1       -0.0003
     30 C          62.2220   84.5664    7.2032 C.ar    1  UNL1       -0.0000
     31 C          60.8015   84.9397    6.8987 C.ar    1  UNL1       -0.0003
     32 C          60.2074   86.1804    7.4967 C.ar    1  UNL1       -0.0029
     33 C          59.2584   89.2767    6.9049 C.3     1  UNL1        0.0861
     34 N          60.1161   89.4625    8.1214 N.3     1  UNL1       -0.2924
     35 H          59.6459   90.1492    8.7111 H       1  UNL1        0.1236
     36 C          63.5920   91.1892   13.1645 C.3     1  UNL1        0.1391
     37 C          64.7621   91.7463   12.4092 C.ar    1  UNL1        0.0319
     38 C          64.6894   91.8974   10.9186 C.ar    1  UNL1        0.1379
     39 F          63.8464   91.6401   10.2714 F       1  UNL1       -0.2044
     40 C          65.8595   92.4545   10.1632 C.ar    1  UNL1        0.0294
     41 C          67.1023   92.8603   10.8985 C.ar    1  UNL1        0.0022
     42 C          67.1751   92.7092   12.3890 C.ar    1  UNL1        0.0037
     43 C          66.0050   92.1521   13.1444 C.ar    1  UNL1        0.0714
     44 C          66.0777   92.0010   14.6350 C.3     1  UNL1        0.4184
     45 F          66.1505   91.8498   16.1256 F       1  UNL1       -0.1659
     46 F          65.8131   93.4685   14.7967 F       1  UNL1       -0.1659
     47 F          66.3423   90.5334   14.4733 F       1  UNL1       -0.1659
@<TRIPOS>UNITY_ATOM_ATTR
23 1
charge -1
@<TRIPOS>BOND
     1    33    34    1
     2    34    26    1
     3    26    25    1
     4    25     1    1
     5     1     2   ar
     6     2     3    2
     7     2     4   ar
     8     4    10    1
     9    10    11   ar
    10    11    12   ar
    11    12    13   ar
    12    13    14   ar
    13    14    17    1
    14    17    18    1
    15    18    19    1
    16    19    20    1
    17    20    21    1
    18    21    22    1
    19    22    23   ar
    20    22    24   ar
    21    14    15   ar
    22    15    16    1
    23     4     5   ar
    24     5     6    1
    25     5     7   ar
    26     7    36    1
    27    36    37    1
    28    37    38   ar
    29    38    39    1
    30    38    40   ar
    31    40    41   ar
    32    41    42   ar
    33    42    43   ar
    34    43    44    1
    35    44    45    1
    36    44    46    1
    37    44    47    1
    38     7     8   ar
    39     8     9    2
    40    26    27    1
    41    27    28   ar
    42    28    29   ar
    43    29    30   ar
    44    30    31   ar
    45    31    32   ar
    46     8     1   ar
    47    32    27   ar
    48    15    10   ar
    49    43    37   ar
    50    34    35    1
