@<TRIPOS>MOLECULE
*****
 20 21 0 0 0
SMALL
GASTEIGER

@<TRIPOS>ATOM
      1 C          66.4770   92.7575   12.2547 C.3     1  UNL1        0.3332
      2 N          67.0340   93.2663   10.9582 N.ar    1  UNL1       -0.1867
      3 C          67.6100   92.4273    9.8563 C.ar    1  UNL1        0.2006
      4 N          68.0448   93.3459    8.7530 N.ar    1  UNL1       -0.2006
      5 C          67.7375   94.7527    9.1731 C.ar    1  UNL1        0.2211
      6 N          67.1128   94.7035   10.5360 N.ar    1  UNL1       -0.1419
      7 C          67.4041   92.2902   13.3373 C.2     1  UNL1        0.2138
      8 O          68.7121   91.6490   12.9796 O.2     1  UNL1       -0.2901
      9 C          67.1948   93.9481   14.6440 C.3     1  UNL1        0.0075
     10 C          67.0232   92.4640   14.7777 C.3     1  UNL1        0.0572
     11 C          66.8516   90.9799   14.9114 C.3     1  UNL1        0.0075
     12 C          66.6423   92.6378   16.2180 C.3     1  UNL1        0.0075
     13 O          64.9929   92.7160   12.4685 O.3     1  UNL1       -0.4509
     14 C          64.2032   91.5232   12.0173 C.ar    1  UNL1        0.1413
     15 C          63.6297   91.4837   10.6319 C.ar    1  UNL1        0.0379
     16 C          62.8400   90.2909   10.1808 C.ar    1  UNL1        0.0145
     17 C          62.6238   89.1376   11.1151 C.ar    1  UNL1        0.0579
     18 CL         61.8340   87.9447   10.6639 Cl      1  UNL1       -0.0822
     19 C          63.1973   89.1770   12.5005 C.ar    1  UNL1        0.0145
     20 C          63.9870   90.3698   12.9517 C.ar    1  UNL1        0.0379
@<TRIPOS>BOND
     1     9    10    1
     2    10    11    1
     3    10    12    1
     4    10     7    1
     5     7     8    2
     6     7     1    1
     7     1    13    1
     8    13    14    1
     9    14    15   ar
    10    15    16   ar
    11    16    17   ar
    12    17    18    1
    13    17    19   ar
    14    19    20   ar
    15     1     2    1
    16     2     3   ar
    17     3     4   ar
    18     4     5   ar
    19     5     6   ar
    20    20    14   ar
    21     6     2   ar
@<TRIPOS>MOLECULE
*****
 20 21 0 0 0
SMALL
GASTEIGER

@<TRIPOS>ATOM
      1 C          63.2072   84.7007   13.8300 C.3     1  UNL1        0.3332
      2 N          63.1191   83.2046   13.8914 N.ar    1  UNL1       -0.1867
      3 C          62.0058   82.4116   14.5092 C.ar    1  UNL1        0.2006
      4 N          62.3274   80.9556   14.3454 N.ar    1  UNL1       -0.2006
      5 C          63.6395   80.8488   13.6264 C.ar    1  UNL1        0.2211
      6 N          64.1287   82.2387   13.3458 N.ar    1  UNL1       -0.1419
      7 C          64.2257   85.4267   14.6583 C.2     1  UNL1        0.2138
      8 O          65.6760   85.0576   14.5567 O.2     1  UNL1       -0.2901
      9 C          63.1501   85.5061   16.4849 C.3     1  UNL1        0.0075
     10 C          63.7937   86.5216   15.5880 C.3     1  UNL1        0.0572
     11 C          64.4373   87.5371   14.6912 C.3     1  UNL1        0.0075
     12 C          63.3617   87.6165   16.5178 C.3     1  UNL1        0.0075
     13 O          62.2771   85.4710   12.9404 O.3     1  UNL1       -0.4509
     14 C          62.3877   85.3436   11.4498 C.ar    1  UNL1        0.1413
     15 C          63.3097   84.3234   10.8506 C.ar    1  UNL1        0.0379
     16 C          63.4203   84.1961    9.3602 C.ar    1  UNL1        0.0145
     17 C          62.6089   85.0890    8.4689 C.ar    1  UNL1        0.0579
     18 CL         62.7195   84.9617    6.9784 Cl      1  UNL1       -0.0822
     19 C          61.6869   86.1093    9.0681 C.ar    1  UNL1        0.0145
     20 C          61.5763   86.2366   10.5586 C.ar    1  UNL1        0.0379
@<TRIPOS>BOND
     1     9    10    1
     2    10    11    1
     3    10    12    1
     4    10     7    1
     5     7     8    2
     6     7     1    1
     7     1    13    1
     8    13    14    1
     9    14    15   ar
    10    15    16   ar
    11    16    17   ar
    12    17    18    1
    13    17    19   ar
    14    19    20   ar
    15     1     2    1
    16     2     3   ar
    17     3     4   ar
    18     4     5   ar
    19     5     6   ar
    20    20    14   ar
    21     6     2   ar
@<TRIPOS>MOLECULE
*****
 20 21 0 0 0
SMALL
GASTEIGER

@<TRIPOS>ATOM
      1 C          66.3510   92.7661   12.6347 C.3     1  UNL1        0.3332
      2 N          66.8741   92.8064   14.0399 N.ar    1  UNL1       -0.1867
      3 C          66.0532   92.6903   15.2900 C.ar    1  UNL1        0.2006
      4 N          66.9817   92.7821   16.4645 N.ar    1  UNL1       -0.2006
      5 C          68.3765   92.9550   15.9403 C.ar    1  UNL1        0.2211
      6 N          68.3100   92.9700   14.4419 N.ar    1  UNL1       -0.1419
      7 C          67.3070   92.7221   11.4795 C.2     1  UNL1        0.2138
      8 O          68.4504   91.7513   11.4889 O.2     1  UNL1       -0.2901
      9 C          66.4560   94.6473   11.2165 C.3     1  UNL1        0.0075
     10 C          67.1194   93.6488   10.3150 C.3     1  UNL1        0.0572
     11 C          67.7829   92.6502    9.4136 C.3     1  UNL1        0.0075
     12 C          66.9319   94.5755    9.1506 C.3     1  UNL1        0.0075
     13 O          64.8721   92.7698   12.3845 O.3     1  UNL1       -0.4509
     14 C          64.1635   91.4889   12.0570 C.ar    1  UNL1        0.1413
     15 C          64.0855   90.3927   13.0780 C.ar    1  UNL1        0.0379
     16 C          63.3770   89.1119   12.7504 C.ar    1  UNL1        0.0145
     17 C          62.7466   88.9271   11.4020 C.ar    1  UNL1        0.0579
     18 CL         62.0381   87.6461   11.0745 Cl      1  UNL1       -0.0822
     19 C          62.8246   90.0232   10.3810 C.ar    1  UNL1        0.0145
     20 C          63.5331   91.3041   10.7085 C.ar    1  UNL1        0.0379
@<TRIPOS>BOND
     1     9    10    1
     2    10    11    1
     3    10    12    1
     4    10     7    1
     5     7     8    2
     6     7     1    1
     7     1    13    1
     8    13    14    1
     9    14    15   ar
    10    15    16   ar
    11    16    17   ar
    12    17    18    1
    13    17    19   ar
    14    19    20   ar
    15     1     2    1
    16     2     3   ar
    17     3     4   ar
    18     4     5   ar
    19     5     6   ar
    20    20    14   ar
    21     6     2   ar
@<TRIPOS>MOLECULE
*****
 20 21 0 0 0
SMALL
GASTEIGER

@<TRIPOS>ATOM
      1 C          65.4718   91.8862   13.4967 C.3     1  UNL1        0.3332
      2 N          64.6791   90.9872   14.3985 N.ar    1  UNL1       -0.1867
      3 C          64.4924   89.5088   14.2271 C.ar    1  UNL1        0.2006
      4 N          63.6317   89.0166   15.3528 N.ar    1  UNL1       -0.2006
      5 C          63.2866   90.1909   16.2200 C.ar    1  UNL1        0.2211
      6 N          63.9339   91.4088   15.6302 N.ar    1  UNL1       -0.1419
      7 C          66.4159   92.8936   14.0833 C.2     1  UNL1        0.2138
      8 O          66.1854   94.3583   13.8567 O.2     1  UNL1       -0.2901
      9 C          66.9746   93.0379   16.1246 C.3     1  UNL1        0.0075
     10 C          67.5904   92.4361   14.8964 C.3     1  UNL1        0.0572
     11 C          68.2063   91.8344   13.6682 C.3     1  UNL1        0.0075
     12 C          68.7650   91.9787   15.7095 C.3     1  UNL1        0.0075
     13 O          65.3205   91.7779   12.0083 O.3     1  UNL1       -0.4509
     14 C          65.9538   92.8018   11.1135 C.ar    1  UNL1        0.1413
     15 C          67.2116   92.4700   10.3667 C.ar    1  UNL1        0.0379
     16 C          67.8448   93.4939    9.4720 C.ar    1  UNL1        0.0145
     17 C          67.2203   94.8497    9.3241 C.ar    1  UNL1        0.0579
     18 CL         67.8535   95.8737    8.4294 Cl      1  UNL1       -0.0822
     19 C          65.9625   95.1815   10.0710 C.ar    1  UNL1        0.0145
     20 C          65.3293   94.1576   10.9657 C.ar    1  UNL1        0.0379
@<TRIPOS>BOND
     1     9    10    1
     2    10    11    1
     3    10    12    1
     4    10     7    1
     5     7     8    2
     6     7     1    1
     7     1    13    1
     8    13    14    1
     9    14    15   ar
    10    15    16   ar
    11    16    17   ar
    12    17    18    1
    13    17    19   ar
    14    19    20   ar
    15     1     2    1
    16     2     3   ar
    17     3     4   ar
    18     4     5   ar
    19     5     6   ar
    20    20    14   ar
    21     6     2   ar
@<TRIPOS>MOLECULE
*****
 20 21 0 0 0
SMALL
GASTEIGER

@<TRIPOS>ATOM
      1 C          61.9963   87.7390   10.7494 C.3     1  UNL1        0.3332
      2 N          62.7720   88.5403   11.7526 N.ar    1  UNL1       -0.1867
      3 C          63.0096   90.0205   11.7049 C.ar    1  UNL1        0.2006
      4 N          63.8307   90.3971   12.9023 N.ar    1  UNL1       -0.2006
      5 C          64.1007   89.1495   13.6901 C.ar    1  UNL1        0.2211
      6 N          63.4463   88.0019   12.9795 N.ar    1  UNL1       -0.1419
      7 C          60.5435   88.0320   10.5173 C.2     1  UNL1        0.2138
      8 O          59.5996   88.1130   11.6803 O.2     1  UNL1       -0.2901
      9 C          60.3200   89.7117    9.2413 C.3     1  UNL1        0.0075
     10 C          60.0348   88.2439    9.1223 C.3     1  UNL1        0.0572
     11 C          59.7496   86.7761    9.0033 C.3     1  UNL1        0.0075
     12 C          59.5260   88.4559    7.7272 C.3     1  UNL1        0.0075
     13 O          62.6732   86.6448    9.9785 O.3     1  UNL1       -0.4509
     14 C          62.8573   85.2922   10.6004 C.ar    1  UNL1        0.1413
     15 C          63.5607   84.2069    9.8408 C.ar    1  UNL1        0.0379
     16 C          63.7447   82.8544   10.4627 C.ar    1  UNL1        0.0145
     17 C          63.2254   82.5873   11.8444 C.ar    1  UNL1        0.0579
     18 CL         63.4095   81.2348   12.4664 Cl      1  UNL1       -0.0822
     19 C          62.5220   83.6727   12.6041 C.ar    1  UNL1        0.0145
     20 C          62.3380   85.0252   11.9821 C.ar    1  UNL1        0.0379
@<TRIPOS>BOND
     1     9    10    1
     2    10    11    1
     3    10    12    1
     4    10     7    1
     5     7     8    2
     6     7     1    1
     7     1    13    1
     8    13    14    1
     9    14    15   ar
    10    15    16   ar
    11    16    17   ar
    12    17    18    1
    13    17    19   ar
    14    19    20   ar
    15     1     2    1
    16     2     3   ar
    17     3     4   ar
    18     4     5   ar
    19     5     6   ar
    20    20    14   ar
    21     6     2   ar
@<TRIPOS>MOLECULE
*****
 20 21 0 0 0
SMALL
GASTEIGER

@<TRIPOS>ATOM
      1 C          62.2599   86.7750   10.8043 C.3     1  UNL1        0.3332
      2 N          62.0307   86.1673    9.4522 N.ar    1  UNL1       -0.1867
      3 C          60.7327   86.1526    8.7006 C.ar    1  UNL1        0.2006
      4 N          60.9591   85.4438    7.3982 N.ar    1  UNL1       -0.2006
      5 C          62.3971   85.0203    7.3448 C.ar    1  UNL1        0.2211
      6 N          63.0594   85.4675    8.6142 N.ar    1  UNL1       -0.1419
      7 C          61.5497   88.0392   11.1885 C.2     1  UNL1        0.2138
      8 O          60.1877   87.9740   11.8136 O.2     1  UNL1       -0.2901
      9 C          63.0568   89.1695   12.1635 C.3     1  UNL1        0.0075
     10 C          62.2014   89.3685   10.9475 C.3     1  UNL1        0.0572
     11 C          61.3460   89.5675    9.7315 C.3     1  UNL1        0.0075
     12 C          62.8532   90.6978   10.7065 C.3     1  UNL1        0.0075
     13 O          63.1992   86.1186   11.7722 O.3     1  UNL1       -0.4509
     14 C          62.8938   84.7488   12.3019 C.ar    1  UNL1        0.1413
     15 C          62.5835   84.5595   13.7572 C.ar    1  UNL1        0.0379
     16 C          62.2782   83.1898   14.2868 C.ar    1  UNL1        0.0145
     17 C          62.2832   82.0094   13.3613 C.ar    1  UNL1        0.0579
     18 CL         61.9778   80.6396   13.8910 Cl      1  UNL1       -0.0822
     19 C          62.5935   82.1987   11.9060 C.ar    1  UNL1        0.0145
     20 C          62.8988   83.5684   11.3763 C.ar    1  UNL1        0.0379
@<TRIPOS>BOND
     1     9    10    1
     2    10    11    1
     3    10    12    1
     4    10     7    1
     5     7     8    2
     6     7     1    1
     7     1    13    1
     8    13    14    1
     9    14    15   ar
    10    15    16   ar
    11    16    17   ar
    12    17    18    1
    13    17    19   ar
    14    19    20   ar
    15     1     2    1
    16     2     3   ar
    17     3     4   ar
    18     4     5   ar
    19     5     6   ar
    20    20    14   ar
    21     6     2   ar
@<TRIPOS>MOLECULE
*****
 20 21 0 0 0
SMALL
GASTEIGER

@<TRIPOS>ATOM
      1 C          63.2156   85.6036   13.2603 C.3     1  UNL1        0.3332
      2 N          63.6547   87.0040   13.5702 N.ar    1  UNL1       -0.1867
      3 C          64.3896   87.4456   14.8010 C.ar    1  UNL1        0.2006
      4 N          64.6250   88.9232   14.6953 N.ar    1  UNL1       -0.2006
      5 C          64.0355   89.3949   13.3991 C.ar    1  UNL1        0.2211
      6 N          63.4359   88.2088   12.7038 N.ar    1  UNL1       -0.1419
      7 C          63.9698   84.4381   13.8286 C.2     1  UNL1        0.2138
      8 O          65.4325   84.5683   14.1341 O.2     1  UNL1       -0.2901
      9 C          62.4702   83.7968   15.1850 C.3     1  UNL1        0.0075
     10 C          63.2611   83.1424   14.0913 C.3     1  UNL1        0.0572
     11 C          64.0520   82.4880   12.9976 C.3     1  UNL1        0.0075
     12 C          62.5525   81.8468   14.3541 C.3     1  UNL1        0.0075
     13 O          62.0226   85.3687   12.3820 O.3     1  UNL1       -0.4509
     14 C          62.1948   85.2611   10.8958 C.ar    1  UNL1        0.1413
     15 C          63.2714   84.3851   10.3270 C.ar    1  UNL1        0.0379
     16 C          63.4436   84.2776    8.8408 C.ar    1  UNL1        0.0145
     17 C          62.5392   85.0460    7.9235 C.ar    1  UNL1        0.0579
     18 CL         62.7114   84.9385    6.4372 Cl      1  UNL1       -0.0822
     19 C          61.4626   85.9220    8.4923 C.ar    1  UNL1        0.0145
     20 C          61.2904   86.0295    9.9784 C.ar    1  UNL1        0.0379
@<TRIPOS>BOND
     1     9    10    1
     2    10    11    1
     3    10    12    1
     4    10     7    1
     5     7     8    2
     6     7     1    1
     7     1    13    1
     8    13    14    1
     9    14    15   ar
    10    15    16   ar
    11    16    17   ar
    12    17    18    1
    13    17    19   ar
    14    19    20   ar
    15     1     2    1
    16     2     3   ar
    17     3     4   ar
    18     4     5   ar
    19     5     6   ar
    20    20    14   ar
    21     6     2   ar
@<TRIPOS>MOLECULE
*****
 20 21 0 0 0
SMALL
GASTEIGER

@<TRIPOS>ATOM
      1 C          62.9589   84.4595   12.7755 C.3     1  UNL1        0.3332
      2 N          62.9115   84.8721   14.2169 N.ar    1  UNL1       -0.1867
      3 C          61.9031   84.4194   15.2308 C.ar    1  UNL1        0.2006
      4 N          62.2326   85.0774   16.5380 N.ar    1  UNL1       -0.2006
      5 C          63.4446   85.9367   16.3318 C.ar    1  UNL1        0.2211
      6 N          63.8642   85.8098   14.8973 N.ar    1  UNL1       -0.1419
      7 C          63.9728   83.4539   12.3162 C.2     1  UNL1        0.2138
      8 O          65.3836   83.5272   12.8205 O.2     1  UNL1       -0.2901
      9 C          62.8080   81.6854   12.4411 C.3     1  UNL1        0.0075
     10 C          63.5758   82.3750   11.3527 C.3     1  UNL1        0.0572
     11 C          64.3437   83.0646   10.2642 C.3     1  UNL1        0.0075
     12 C          63.1789   81.2962   10.3891 C.3     1  UNL1        0.0075
     13 O          61.9925   85.0525   11.7935 O.3     1  UNL1       -0.4509
     14 C          62.1368   86.4845   11.3706 C.ar    1  UNL1        0.1413
     15 C          61.5194   86.9530   10.0864 C.ar    1  UNL1        0.0379
     16 C          61.6637   88.3849    9.6635 C.ar    1  UNL1        0.0145
     17 C          62.4253   89.3482   10.5249 C.ar    1  UNL1        0.0579
     18 CL         62.5695   90.7802   10.1021 Cl      1  UNL1       -0.0822
     19 C          63.0426   88.8797   11.8092 C.ar    1  UNL1        0.0145
     20 C          62.8984   87.4478   12.2320 C.ar    1  UNL1        0.0379
@<TRIPOS>BOND
     1     9    10    1
     2    10    11    1
     3    10    12    1
     4    10     7    1
     5     7     8    2
     6     7     1    1
     7     1    13    1
     8    13    14    1
     9    14    15   ar
    10    15    16   ar
    11    16    17   ar
    12    17    18    1
    13    17    19   ar
    14    19    20   ar
    15     1     2    1
    16     2     3   ar
    17     3     4   ar
    18     4     5   ar
    19     5     6   ar
    20    20    14   ar
    21     6     2   ar
@<TRIPOS>MOLECULE
*****
 20 21 0 0 0
SMALL
GASTEIGER

@<TRIPOS>ATOM
      1 C          65.6077   92.6362   13.1842 C.3     1  UNL1        0.3332
      2 N          64.5749   92.0117   12.2936 N.ar    1  UNL1       -0.1867
      3 C          64.5827   92.0201   10.7936 C.ar    1  UNL1        0.2006
      4 N          63.3655   91.2828   10.3195 N.ar    1  UNL1       -0.2006
      5 C          62.6054   90.8186   11.5265 C.ar    1  UNL1        0.2211
      6 N          63.3528   91.2692   12.7465 N.ar    1  UNL1       -0.1419
      7 C          66.3819   91.7849   14.1465 C.2     1  UNL1        0.2138
      8 O          65.8526   90.4415   14.5528 O.2     1  UNL1       -0.2901
      9 C          68.3890   91.8158   13.4607 C.3     1  UNL1        0.0075
     10 C          67.6852   92.2770   14.7024 C.3     1  UNL1        0.0572
     11 C          66.9815   92.7381   15.9442 C.3     1  UNL1        0.0075
     12 C          68.9886   92.7690   15.2583 C.3     1  UNL1        0.0075
     13 O          65.8665   94.1119   13.1125 O.3     1  UNL1       -0.4509
     14 C          66.2999   94.7355   11.8188 C.ar    1  UNL1        0.1413
     15 C          67.0402   93.9172   10.8028 C.ar    1  UNL1        0.0379
     16 C          67.4737   94.5407    9.5093 C.ar    1  UNL1        0.0145
     17 C          67.1667   95.9825    9.2317 C.ar    1  UNL1        0.0579
     18 CL         67.6002   96.6060    7.9381 Cl      1  UNL1       -0.0822
     19 C          66.4264   96.8008   10.2477 C.ar    1  UNL1        0.0145
     20 C          65.9930   96.1773   11.5413 C.ar    1  UNL1        0.0379
@<TRIPOS>BOND
     1     9    10    1
     2    10    11    1
     3    10    12    1
     4    10     7    1
     5     7     8    2
     6     7     1    1
     7     1    13    1
     8    13    14    1
     9    14    15   ar
    10    15    16   ar
    11    16    17   ar
    12    17    18    1
    13    17    19   ar
    14    19    20   ar
    15     1     2    1
    16     2     3   ar
    17     3     4   ar
    18     4     5   ar
    19     5     6   ar
    20    20    14   ar
    21     6     2   ar
