@<TRIPOS>MOLECULE
*****
 45 49 0 0 0
SMALL
GASTEIGER

@<TRIPOS>ATOM
      1 C          63.4099   90.1197   12.4609 C.ar    1  UNL1        0.0574
      2 C          62.6175   89.7608   11.2389 C.ar    1  UNL1        0.0786
      3 N          62.2731   88.3272   10.9627 N.ar    1  UNL1       -0.2979
      4 C          62.7211   87.2526   11.9085 C.ar    1  UNL1        0.1750
      5 N          63.5135   87.6115   13.1305 N.ar    1  UNL1       -0.1847
      6 C          63.8579   89.0451   13.4066 C.ar    1  UNL1        0.2786
      7 O          64.6503   89.4041   14.6286 O.2     1  UNL1       -0.2654
      8 C          63.7543   91.5533   12.7371 C.3     1  UNL1        0.0622
      9 C          67.5090   93.4427    9.5413 C.3     1  UNL1        0.1537
     10 N          66.7748   92.9916   10.7691 N.ar    1  UNL1       -0.2477
     11 C          65.3788   92.4444   10.8105 C.ar    1  UNL1        0.0927
     12 C          65.0490   92.1231   12.2381 C.ar    1  UNL1        0.0220
     13 C          66.2412   92.4718   13.0790 C.ar    1  UNL1        0.1177
     14 N          67.3078   93.0085   12.1712 N.ar    1  UNL1       -0.1679
     15 C          61.4806   87.9683    9.7407 C.3     1  UNL1        0.1934
     16 C          60.5132   88.9552    9.1575 C.2     1  UNL1        0.2491
     17 O          60.1815   90.2122    9.9059 O.2     1  UNL1       -0.2727
     18 N          59.8776   88.6852    7.8260 N.am    1  UNL1       -0.2713
     19 C          60.2093   87.4282    7.0776 C.3     1  UNL1        0.1254
     20 C          59.4599   86.1619    7.3691 C.3     1  UNL1        0.1586
     21 O          58.0099   86.2190    7.7488 O.3     1  UNL1       -0.3802
     22 H          57.9175   86.6634    8.6061 H       1  UNL1        0.2105
     23 C          58.9102   89.6721    7.2428 C.3     1  UNL1        0.1203
     24 C          59.3002   90.4865    6.0450 C.ar    1  UNL1       -0.0023
     25 C          58.2593   91.2642    5.2955 C.ar    1  UNL1       -0.0026
     26 C          58.6493   92.0786    4.0978 C.ar    1  UNL1       -0.0003
     27 C          60.0802   92.1153    3.6495 C.ar    1  UNL1       -0.0000
     28 C          61.1212   91.3377    4.3990 C.ar    1  UNL1       -0.0003
     29 C          60.7312   90.5233    5.5967 C.ar    1  UNL1       -0.0026
     30 C          60.4703   92.9297    2.4517 C.ar    1  UNL1        0.0001
     31 C          61.9088   93.2896    2.2257 C.ar    1  UNL1        0.0009
     32 C          62.2989   94.1040    1.0279 C.ar    1  UNL1        0.0114
     33 C          61.2504   94.5585    0.0563 C.ar    1  UNL1        0.0577
     34 CL         61.6405   95.3729   -1.1415 Cl      1  UNL1       -0.0822
     35 C          59.8119   94.1985    0.2823 C.ar    1  UNL1        0.0114
     36 C          59.4218   93.3842    1.4800 C.ar    1  UNL1        0.0009
     37 S          62.3766   85.8190   11.6323 S.3     1  UNL1       -0.0724
     38 C          63.4109   84.7493   11.8217 C.3     1  UNL1        0.0913
     39 C          63.0041   83.3912   12.3119 C.ar    1  UNL1       -0.0108
     40 C          63.1483   82.1964   11.4166 C.ar    1  UNL1       -0.0011
     41 C          62.7416   80.8384   11.9068 C.ar    1  UNL1        0.0293
     42 C          62.1907   80.6752   13.2924 C.ar    1  UNL1        0.1401
     43 F          61.7840   79.3171   13.7827 F       1  UNL1       -0.2042
     44 C          62.0465   81.8700   14.1878 C.ar    1  UNL1        0.0293
     45 C          62.4533   83.2280   13.6975 C.ar    1  UNL1       -0.0011
@<TRIPOS>BOND
     1     9    10    1
     2    10    11   ar
     3    11    12   ar
     4    12     8    1
     5     8     1    1
     6     1     2   ar
     7     2     3   ar
     8     3    15    1
     9    15    16    1
    10    16    17    2
    11    16    18   am
    12    18    19    1
    13    19    20    1
    14    20    21    1
    15    18    23    1
    16    23    24    1
    17    24    25   ar
    18    25    26   ar
    19    26    27   ar
    20    27    30    1
    21    30    31   ar
    22    31    32   ar
    23    32    33   ar
    24    33    34    1
    25    33    35   ar
    26    35    36   ar
    27    27    28   ar
    28    28    29   ar
    29     3     4   ar
    30     4    37    1
    31    37    38    1
    32    38    39    1
    33    39    40   ar
    34    40    41   ar
    35    41    42   ar
    36    42    43    1
    37    42    44   ar
    38    44    45   ar
    39     4     5   ar
    40     5     6   ar
    41     6     7    2
    42    12    13   ar
    43    13    14   ar
    44    14    10   ar
    45     6     1   ar
    46    29    24   ar
    47    45    39   ar
    48    36    30   ar
    49    21    22    1
@<TRIPOS>MOLECULE
*****
 45 49 0 0 0
SMALL
GASTEIGER

@<TRIPOS>ATOM
      1 C          66.1790   93.3656   12.1595 C.ar    1  UNL1        0.0574
      2 C          64.9160   93.0067   11.4343 C.ar    1  UNL1        0.0786
      3 N          63.9892   91.9760   12.0075 N.ar    1  UNL1       -0.2979
      4 C          64.3253   91.3042   13.3059 C.ar    1  UNL1        0.1750
      5 N          65.5883   91.6632   14.0311 N.ar    1  UNL1       -0.1847
      6 C          66.5152   92.6939   13.4579 C.ar    1  UNL1        0.2786
      7 O          67.7783   93.0529   14.1831 O.2     1  UNL1       -0.2654
      8 C          67.1059   94.3964   11.5863 C.3     1  UNL1        0.0622
      9 C          65.8050   96.8559    7.0987 C.3     1  UNL1        0.1537
     10 N          66.4174   95.8924    8.0717 N.ar    1  UNL1       -0.2477
     11 C          66.2201   95.8959    9.5586 C.ar    1  UNL1        0.0927
     12 C          67.0154   94.7619   10.1344 C.ar    1  UNL1        0.0220
     13 C          67.7042   94.0576    9.0033 C.ar    1  UNL1        0.1177
     14 N          67.3347   94.7562    7.7284 N.ar    1  UNL1       -0.1679
     15 C          62.7261   91.6170   11.2823 C.3     1  UNL1        0.1934
     16 C          62.6509   90.3443   10.4920 C.2     1  UNL1        0.2491
     17 O          63.9015   89.5710   10.1948 O.2     1  UNL1       -0.2727
     18 N          61.3253   89.8449    9.9988 N.am    1  UNL1       -0.2713
     19 C          60.0748   90.6182   10.2959 C.3     1  UNL1        0.1254
     20 C          59.3527   90.4066   11.5935 C.3     1  UNL1        0.1586
     21 O          60.0528   89.7423   12.7418 O.3     1  UNL1       -0.3802
     22 H          60.2474   88.8202   12.5120 H       1  UNL1        0.2105
     23 C          61.2502   88.5722    9.2084 C.3     1  UNL1        0.1203
     24 C          61.5599   87.2607    9.8673 C.ar    1  UNL1       -0.0023
     25 C          61.2375   87.0556   11.3178 C.ar    1  UNL1       -0.0026
     26 C          61.5472   85.7442   11.9768 C.ar    1  UNL1       -0.0003
     27 C          62.1792   84.6379   11.1852 C.ar    1  UNL1       -0.0000
     28 C          62.5016   84.8430    9.7347 C.ar    1  UNL1       -0.0003
     29 C          62.1919   86.1545    9.0757 C.ar    1  UNL1       -0.0026
     30 C          62.4889   83.3264   11.8441 C.ar    1  UNL1        0.0001
     31 C          62.9769   82.1707   11.0218 C.ar    1  UNL1        0.0009
     32 C          63.2866   80.8593   11.6807 C.ar    1  UNL1        0.0114
     33 C          63.1083   80.7035   13.1618 C.ar    1  UNL1        0.0577
     34 CL         63.4180   79.3920   13.8208 Cl      1  UNL1       -0.0822
     35 C          62.6203   81.8592   13.9842 C.ar    1  UNL1        0.0114
     36 C          62.3106   83.1707   13.3253 C.ar    1  UNL1        0.0009
     37 S          63.3984   90.2735   13.8791 S.3     1  UNL1       -0.0724
     38 C          63.6350   89.7371   15.2597 C.3     1  UNL1        0.0913
     39 C          63.7145   88.2563   15.4856 C.ar    1  UNL1       -0.0108
     40 C          63.1590   87.6587   16.7443 C.ar    1  UNL1       -0.0011
     41 C          63.2386   86.1780   16.9702 C.ar    1  UNL1        0.0293
     42 C          63.8736   85.2948   15.9374 C.ar    1  UNL1        0.1401
     43 F          63.9532   83.8140   16.1633 F       1  UNL1       -0.2042
     44 C          64.4292   85.8924   14.6787 C.ar    1  UNL1        0.0293
     45 C          64.3496   87.3731   14.4528 C.ar    1  UNL1       -0.0011
@<TRIPOS>BOND
     1     9    10    1
     2    10    11   ar
     3    11    12   ar
     4    12     8    1
     5     8     1    1
     6     1     2   ar
     7     2     3   ar
     8     3    15    1
     9    15    16    1
    10    16    17    2
    11    16    18   am
    12    18    19    1
    13    19    20    1
    14    20    21    1
    15    18    23    1
    16    23    24    1
    17    24    25   ar
    18    25    26   ar
    19    26    27   ar
    20    27    30    1
    21    30    31   ar
    22    31    32   ar
    23    32    33   ar
    24    33    34    1
    25    33    35   ar
    26    35    36   ar
    27    27    28   ar
    28    28    29   ar
    29     3     4   ar
    30     4    37    1
    31    37    38    1
    32    38    39    1
    33    39    40   ar
    34    40    41   ar
    35    41    42   ar
    36    42    43    1
    37    42    44   ar
    38    44    45   ar
    39     4     5   ar
    40     5     6   ar
    41     6     7    2
    42    12    13   ar
    43    13    14   ar
    44    14    10   ar
    45     6     1   ar
    46    29    24   ar
    47    45    39   ar
    48    36    30   ar
    49    21    22    1
@<TRIPOS>MOLECULE
*****
 45 49 0 0 0
SMALL
GASTEIGER

@<TRIPOS>ATOM
      1 C          61.2075   89.2372   10.7343 C.ar    1  UNL1        0.0574
      2 C          61.8224   89.0676   12.0919 C.ar    1  UNL1        0.0786
      3 N          62.9232   89.9843   12.5365 N.ar    1  UNL1       -0.2979
      4 C          63.4092   91.0707   11.6234 C.ar    1  UNL1        0.1750
      5 N          62.7944   91.2403   10.2658 N.ar    1  UNL1       -0.1847
      6 C          61.6935   90.3235    9.8213 C.ar    1  UNL1        0.2786
      7 O          61.0786   90.4931    8.4636 O.2     1  UNL1       -0.2654
      8 C          60.1066   88.3204   10.2897 C.3     1  UNL1        0.0622
      9 C          62.5349   84.8111    7.1803 C.3     1  UNL1        0.1537
     10 N          61.4820   85.6871    7.7919 N.ar    1  UNL1       -0.2477
     11 C          61.6787   86.6308    8.9411 C.ar    1  UNL1        0.0927
     12 C          60.3659   87.3002    9.2211 C.ar    1  UNL1        0.0220
     13 C          59.3578   86.7701    8.2450 C.ar    1  UNL1        0.1177
     14 N          60.0476   85.7732    7.3617 N.ar    1  UNL1       -0.1679
     15 C          63.5381   89.8147   13.8942 C.3     1  UNL1        0.1934
     16 C          63.7415   88.4401   14.4590 C.2     1  UNL1        0.2491
     17 O          64.1527   87.3127   13.5590 O.2     1  UNL1       -0.2727
     18 N          63.5336   88.1928   15.9238 N.am    1  UNL1       -0.2713
     19 C          63.1225   89.3202   16.8238 C.3     1  UNL1        0.1254
     20 C          63.9102   90.5967   16.8348 C.3     1  UNL1        0.1586
     21 O          63.2085   91.9123   16.6715 O.3     1  UNL1       -0.3802
     22 H          62.8249   91.9660   15.7822 H       1  UNL1        0.2105
     23 C          63.7370   86.8182   16.4886 C.3     1  UNL1        0.1203
     24 C          63.5824   85.6146   15.6068 C.ar    1  UNL1       -0.0023
     25 C          62.2534   84.9268   15.5027 C.ar    1  UNL1       -0.0026
     26 C          62.0988   83.7233   14.6209 C.ar    1  UNL1       -0.0003
     27 C          63.2731   83.2075   13.8433 C.ar    1  UNL1       -0.0000
     28 C          64.6021   83.8953   13.9473 C.ar    1  UNL1       -0.0003
     29 C          64.7567   85.0988   14.8291 C.ar    1  UNL1       -0.0026
     30 C          63.1186   82.0039   12.9614 C.ar    1  UNL1        0.0001
     31 C          62.6651   80.6991   13.5461 C.ar    1  UNL1        0.0009
     32 C          62.5105   79.4956   12.6644 C.ar    1  UNL1        0.0114
     33 C          62.8094   79.5968   11.1980 C.ar    1  UNL1        0.0577
     34 CL         62.6548   78.3932   10.3161 Cl      1  UNL1       -0.0822
     35 C          63.2629   80.9016   10.6133 C.ar    1  UNL1        0.0114
     36 C          63.4175   82.1052   11.4950 C.ar    1  UNL1        0.0009
     37 S          64.5101   91.9874   12.0681 S.3     1  UNL1       -0.0724
     38 C          65.8324   91.9702   11.3600 C.3     1  UNL1        0.0913
     39 C          66.3083   93.1912   10.6301 C.ar    1  UNL1       -0.0108
     40 C          67.4211   93.0813    9.6305 C.ar    1  UNL1       -0.0011
     41 C          67.8970   94.3023    8.9006 C.ar    1  UNL1        0.0293
     42 C          67.2600   95.6332    9.1705 C.ar    1  UNL1        0.1401
     43 F          67.7359   96.8542    8.4406 F       1  UNL1       -0.2042
     44 C          66.1471   95.7432   10.1701 C.ar    1  UNL1        0.0293
     45 C          65.6713   94.5222   10.9000 C.ar    1  UNL1       -0.0011
@<TRIPOS>BOND
     1     9    10    1
     2    10    11   ar
     3    11    12   ar
     4    12     8    1
     5     8     1    1
     6     1     2   ar
     7     2     3   ar
     8     3    15    1
     9    15    16    1
    10    16    17    2
    11    16    18   am
    12    18    19    1
    13    19    20    1
    14    20    21    1
    15    18    23    1
    16    23    24    1
    17    24    25   ar
    18    25    26   ar
    19    26    27   ar
    20    27    30    1
    21    30    31   ar
    22    31    32   ar
    23    32    33   ar
    24    33    34    1
    25    33    35   ar
    26    35    36   ar
    27    27    28   ar
    28    28    29   ar
    29     3     4   ar
    30     4    37    1
    31    37    38    1
    32    38    39    1
    33    39    40   ar
    34    40    41   ar
    35    41    42   ar
    36    42    43    1
    37    42    44   ar
    38    44    45   ar
    39     4     5   ar
    40     5     6   ar
    41     6     7    2
    42    12    13   ar
    43    13    14   ar
    44    14    10   ar
    45     6     1   ar
    46    29    24   ar
    47    45    39   ar
    48    36    30   ar
    49    21    22    1
@<TRIPOS>MOLECULE
*****
 45 49 0 0 0
SMALL
GASTEIGER

@<TRIPOS>ATOM
      1 C          62.0463   90.1602   11.3298 C.ar    1  UNL1        0.0574
      2 C          62.2716   89.7290   12.7486 C.ar    1  UNL1        0.0786
      3 N          63.4266   90.2855   13.5272 N.ar    1  UNL1       -0.2979
      4 C          64.3563   91.2732   12.8868 C.ar    1  UNL1        0.1750
      5 N          64.1311   91.7044   11.4679 N.ar    1  UNL1       -0.1847
      6 C          62.9760   91.1478   10.6894 C.ar    1  UNL1        0.2786
      7 O          62.7507   91.5790    9.2704 O.2     1  UNL1       -0.2654
      8 C          60.8912   89.6036   10.5511 C.3     1  UNL1        0.0622
      9 C          62.9727   85.2117    8.4875 C.3     1  UNL1        0.1537
     10 N          62.0057   86.3030    8.8399 N.ar    1  UNL1       -0.2477
     11 C          62.2969   87.4937    9.7044 C.ar    1  UNL1        0.0927
     12 C          61.0490   88.3217    9.7884 C.ar    1  UNL1        0.0220
     13 C          59.9866   87.6428    8.9758 C.ar    1  UNL1        0.1177
     14 N          60.5778   86.3951    8.3895 N.ar    1  UNL1       -0.1679
     15 C          63.6520   89.8543   14.9461 C.3     1  UNL1        0.1934
     16 C          64.2479   88.5085   15.2354 C.2     1  UNL1        0.2491
     17 O          65.5409   88.1064   14.5898 O.2     1  UNL1       -0.2727
     18 N          63.5510   87.5649   16.1701 N.am    1  UNL1       -0.2713
     19 C          62.2580   87.9670   16.8157 C.3     1  UNL1        0.1254
     20 C          61.4101   86.9372   17.5016 C.3     1  UNL1        0.1586
     21 O          60.4999   86.0580   16.6964 O.3     1  UNL1       -0.3802
     22 H          59.8034   86.5982   16.2915 H       1  UNL1        0.2105
     23 C          64.1470   86.2191   16.4594 C.3     1  UNL1        0.1203
     24 C          63.9212   85.0793   15.5107 C.ar    1  UNL1       -0.0023
     25 C          62.8349   84.0812   15.7825 C.ar    1  UNL1       -0.0026
     26 C          62.6091   82.9414   14.8339 C.ar    1  UNL1       -0.0003
     27 C          63.4695   82.7997   13.6135 C.ar    1  UNL1       -0.0000
     28 C          64.5558   83.7978   13.3417 C.ar    1  UNL1       -0.0003
     29 C          64.7816   84.9375   14.2903 C.ar    1  UNL1       -0.0026
     30 C          63.2437   81.6599   12.6648 C.ar    1  UNL1        0.0001
     31 C          63.5029   81.8419   11.1986 C.ar    1  UNL1        0.0009
     32 C          63.2772   80.7021   10.2500 C.ar    1  UNL1        0.0114
     33 C          62.7922   79.3805   10.7675 C.ar    1  UNL1        0.0577
     34 CL         62.5664   78.2406    9.8188 Cl      1  UNL1       -0.0822
     35 C          62.5330   79.1985   12.2337 C.ar    1  UNL1        0.0114
     36 C          62.7587   80.3382   13.1823 C.ar    1  UNL1        0.0009
     37 S          65.5114   91.8297   13.6654 S.3     1  UNL1       -0.0724
     38 C          66.8533   91.9802   13.0122 C.3     1  UNL1        0.0913
     39 C          67.0009   92.8388   11.7911 C.ar    1  UNL1       -0.0108
     40 C          67.7070   92.3053   10.5800 C.ar    1  UNL1       -0.0011
     41 C          67.8547   93.1639    9.3590 C.ar    1  UNL1        0.0293
     42 C          67.2962   94.5561    9.3491 C.ar    1  UNL1        0.1401
     43 F          67.4439   95.4147    8.1280 F       1  UNL1       -0.2042
     44 C          66.5902   95.0896   10.5602 C.ar    1  UNL1        0.0293
     45 C          66.4425   94.2310   11.7812 C.ar    1  UNL1       -0.0011
@<TRIPOS>BOND
     1     9    10    1
     2    10    11   ar
     3    11    12   ar
     4    12     8    1
     5     8     1    1
     6     1     2   ar
     7     2     3   ar
     8     3    15    1
     9    15    16    1
    10    16    17    2
    11    16    18   am
    12    18    19    1
    13    19    20    1
    14    20    21    1
    15    18    23    1
    16    23    24    1
    17    24    25   ar
    18    25    26   ar
    19    26    27   ar
    20    27    30    1
    21    30    31   ar
    22    31    32   ar
    23    32    33   ar
    24    33    34    1
    25    33    35   ar
    26    35    36   ar
    27    27    28   ar
    28    28    29   ar
    29     3     4   ar
    30     4    37    1
    31    37    38    1
    32    38    39    1
    33    39    40   ar
    34    40    41   ar
    35    41    42   ar
    36    42    43    1
    37    42    44   ar
    38    44    45   ar
    39     4     5   ar
    40     5     6   ar
    41     6     7    2
    42    12    13   ar
    43    13    14   ar
    44    14    10   ar
    45     6     1   ar
    46    29    24   ar
    47    45    39   ar
    48    36    30   ar
    49    21    22    1
@<TRIPOS>MOLECULE
*****
 45 49 0 0 0
SMALL
GASTEIGER

@<TRIPOS>ATOM
      1 C          61.5012   88.6326   10.4687 C.ar    1  UNL1        0.0574
      2 C          62.2092   88.4711   11.7812 C.ar    1  UNL1        0.0786
      3 N          63.0189   89.6029   12.3408 N.ar    1  UNL1       -0.2979
      4 C          63.1206   90.8963   11.5879 C.ar    1  UNL1        0.1750
      5 N          62.4126   91.0578   10.2755 N.ar    1  UNL1       -0.1847
      6 C          61.6030   89.9259    9.7159 C.ar    1  UNL1        0.2786
      7 O          60.8949   90.0874    8.4033 O.2     1  UNL1       -0.2654
      8 C          60.6915   87.5007    9.9091 C.3     1  UNL1        0.0622
      9 C          61.4548   84.2678    5.8047 C.3     1  UNL1        0.1537
     10 N          61.6723   85.0400    7.0721 N.ar    1  UNL1       -0.2477
     11 C          60.6910   85.9755    7.7139 C.ar    1  UNL1        0.0927
     12 C          61.3214   86.5260    8.9587 C.ar    1  UNL1        0.0220
     13 C          62.6923   85.9308    9.0862 C.ar    1  UNL1        0.1177
     14 N          62.9092   85.0124    7.9202 N.ar    1  UNL1       -0.1679
     15 C          63.7269   89.4415   13.6534 C.3     1  UNL1        0.1934
     16 C          63.8690   88.0798   14.2664 C.2     1  UNL1        0.2491
     17 O          64.2734   86.9127   13.4152 O.2     1  UNL1       -0.2727
     18 N          63.6067   87.8853   15.7303 N.am    1  UNL1       -0.2713
     19 C          63.2022   89.0525   16.5814 C.3     1  UNL1        0.1254
     20 C          63.9041   90.3695   16.4306 C.3     1  UNL1        0.1586
     21 O          63.2075   91.6394   16.8205 O.3     1  UNL1       -0.3802
     22 H          62.4530   91.7889   16.2295 H       1  UNL1        0.2105
     23 C          63.7487   86.5237   16.3433 C.3     1  UNL1        0.1203
     24 C          63.5769   85.2980   15.4957 C.ar    1  UNL1       -0.0023
     25 C          62.2195   84.6797   15.3377 C.ar    1  UNL1       -0.0026
     26 C          62.0477   83.4541   14.4902 C.ar    1  UNL1       -0.0003
     27 C          63.2333   82.8468   13.8007 C.ar    1  UNL1       -0.0000
     28 C          64.5908   83.4651   13.9588 C.ar    1  UNL1       -0.0003
     29 C          64.7626   84.6907   14.8063 C.ar    1  UNL1       -0.0026
     30 C          63.0615   81.6211   12.9532 C.ar    1  UNL1        0.0001
     31 C          62.6765   80.3179   13.5884 C.ar    1  UNL1        0.0009
     32 C          62.5048   79.0923   12.7409 C.ar    1  UNL1        0.0114
     33 C          62.7180   79.1698   11.2582 C.ar    1  UNL1        0.0577
     34 CL         62.5462   77.9442   10.4106 Cl      1  UNL1       -0.0822
     35 C          63.1030   80.4730   10.6230 C.ar    1  UNL1        0.0114
     36 C          63.2748   81.6986   11.4704 C.ar    1  UNL1        0.0009
     37 S          63.9303   92.0282   12.1476 S.3     1  UNL1       -0.0724
     38 C          65.4124   92.0738   11.9213 C.3     1  UNL1        0.0913
     39 C          66.3470   92.1740   13.0903 C.ar    1  UNL1       -0.0108
     40 C          65.8184   92.5492   14.4430 C.ar    1  UNL1       -0.0011
     41 C          66.7529   92.6494   15.6120 C.ar    1  UNL1        0.0293
     42 C          68.2160   92.3745   15.4283 C.ar    1  UNL1        0.1401
     43 F          69.1506   92.4747   16.5974 F       1  UNL1       -0.2042
     44 C          68.7446   91.9993   14.0756 C.ar    1  UNL1        0.0293
     45 C          67.8101   91.8991   12.9066 C.ar    1  UNL1       -0.0011
@<TRIPOS>BOND
     1     9    10    1
     2    10    11   ar
     3    11    12   ar
     4    12     8    1
     5     8     1    1
     6     1     2   ar
     7     2     3   ar
     8     3    15    1
     9    15    16    1
    10    16    17    2
    11    16    18   am
    12    18    19    1
    13    19    20    1
    14    20    21    1
    15    18    23    1
    16    23    24    1
    17    24    25   ar
    18    25    26   ar
    19    26    27   ar
    20    27    30    1
    21    30    31   ar
    22    31    32   ar
    23    32    33   ar
    24    33    34    1
    25    33    35   ar
    26    35    36   ar
    27    27    28   ar
    28    28    29   ar
    29     3     4   ar
    30     4    37    1
    31    37    38    1
    32    38    39    1
    33    39    40   ar
    34    40    41   ar
    35    41    42   ar
    36    42    43    1
    37    42    44   ar
    38    44    45   ar
    39     4     5   ar
    40     5     6   ar
    41     6     7    2
    42    12    13   ar
    43    13    14   ar
    44    14    10   ar
    45     6     1   ar
    46    29    24   ar
    47    45    39   ar
    48    36    30   ar
    49    21    22    1
@<TRIPOS>MOLECULE
*****
 45 49 0 0 0
SMALL
GASTEIGER

@<TRIPOS>ATOM
      1 C          65.7808   93.0026   13.1098 C.ar    1  UNL1        0.0574
      2 C          64.6250   92.4546   12.3264 C.ar    1  UNL1        0.0786
      3 N          63.6866   91.4722   12.9622 N.ar    1  UNL1       -0.2979
      4 C          63.9041   91.0377   14.3813 C.ar    1  UNL1        0.1750
      5 N          65.0600   91.5857   15.1647 N.ar    1  UNL1       -0.1847
      6 C          65.9983   92.5681   14.5289 C.ar    1  UNL1        0.2786
      7 O          67.1543   93.1162   15.3122 O.2     1  UNL1       -0.2654
      8 C          66.7192   93.9851   12.4740 C.3     1  UNL1        0.0622
      9 C          68.9753   91.7998    8.2296 C.3     1  UNL1        0.1537
     10 N          68.2402   92.7563    9.1211 N.ar    1  UNL1       -0.2477
     11 C          67.9605   92.5623   10.5820 C.ar    1  UNL1        0.0927
     12 C          67.2032   93.7608   11.0721 C.ar    1  UNL1        0.0220
     13 C          67.0149   94.6954    9.9141 C.ar    1  UNL1        0.1177
     14 N          67.6558   94.0747    8.7083 N.ar    1  UNL1       -0.1679
     15 C          62.5307   90.9242   12.1789 C.3     1  UNL1        0.1934
     16 C          62.7110   89.6972   11.3351 C.2     1  UNL1        0.2491
     17 O          63.8500   88.7600   11.6079 O.2     1  UNL1       -0.2727
     18 N          61.7522   89.4072   10.2186 N.am    1  UNL1       -0.2713
     19 C          60.6131   90.3443    9.9457 C.3     1  UNL1        0.1254
     20 C          59.4140   90.3496   10.8468 C.3     1  UNL1        0.1586
     21 O          59.0369   91.5991   11.5861 O.3     1  UNL1       -0.3802
     22 H          59.7272   91.8126   12.2332 H       1  UNL1        0.2105
     23 C          61.9325   88.1802    9.3748 C.3     1  UNL1        0.1203
     24 C          62.0630   86.8350   10.0256 C.ar    1  UNL1       -0.0023
     25 C          62.6848   85.6954    9.2741 C.ar    1  UNL1       -0.0026
     26 C          62.8153   84.3503    9.9249 C.ar    1  UNL1       -0.0003
     27 C          62.3239   84.1447   11.3271 C.ar    1  UNL1       -0.0000
     28 C          61.7021   85.2842   12.0785 C.ar    1  UNL1       -0.0003
     29 C          61.5716   86.6294   11.4278 C.ar    1  UNL1       -0.0026
     30 C          62.4544   82.7995   11.9779 C.ar    1  UNL1        0.0001
     31 C          62.1177   82.6331   13.4301 C.ar    1  UNL1        0.0009
     32 C          62.2481   81.2880   14.0809 C.ar    1  UNL1        0.0114
     33 C          62.7152   80.1093   13.2795 C.ar    1  UNL1        0.0577
     34 CL         62.8457   78.7640   13.9303 Cl      1  UNL1       -0.0822
     35 C          63.0519   80.2756   11.8273 C.ar    1  UNL1        0.0114
     36 C          62.9215   81.6207   11.1764 C.ar    1  UNL1        0.0009
     37 S          62.9657   90.0552   15.0171 S.3     1  UNL1       -0.0724
     38 C          63.4286   89.2134   16.1690 C.3     1  UNL1        0.0913
     39 C          63.6595   87.7435   15.9787 C.ar    1  UNL1       -0.0108
     40 C          64.4281   87.2531   14.7876 C.ar    1  UNL1       -0.0011
     41 C          64.6589   85.7832   14.5974 C.ar    1  UNL1        0.0293
     42 C          64.1212   84.8038   15.5982 C.ar    1  UNL1        0.1401
     43 F          64.3521   83.3339   15.4079 F       1  UNL1       -0.2042
     44 C          63.3526   85.2943   16.7893 C.ar    1  UNL1        0.0293
     45 C          63.1218   86.7641   16.9796 C.ar    1  UNL1       -0.0011
@<TRIPOS>BOND
     1     9    10    1
     2    10    11   ar
     3    11    12   ar
     4    12     8    1
     5     8     1    1
     6     1     2   ar
     7     2     3   ar
     8     3    15    1
     9    15    16    1
    10    16    17    2
    11    16    18   am
    12    18    19    1
    13    19    20    1
    14    20    21    1
    15    18    23    1
    16    23    24    1
    17    24    25   ar
    18    25    26   ar
    19    26    27   ar
    20    27    30    1
    21    30    31   ar
    22    31    32   ar
    23    32    33   ar
    24    33    34    1
    25    33    35   ar
    26    35    36   ar
    27    27    28   ar
    28    28    29   ar
    29     3     4   ar
    30     4    37    1
    31    37    38    1
    32    38    39    1
    33    39    40   ar
    34    40    41   ar
    35    41    42   ar
    36    42    43    1
    37    42    44   ar
    38    44    45   ar
    39     4     5   ar
    40     5     6   ar
    41     6     7    2
    42    12    13   ar
    43    13    14   ar
    44    14    10   ar
    45     6     1   ar
    46    29    24   ar
    47    45    39   ar
    48    36    30   ar
    49    21    22    1
@<TRIPOS>MOLECULE
*****
 45 49 0 0 0
SMALL
GASTEIGER

@<TRIPOS>ATOM
      1 C          64.5052   91.1215   13.1604 C.ar    1  UNL1        0.0574
      2 C          63.8727   89.9500   12.4694 C.ar    1  UNL1        0.0786
      3 N          63.7261   88.6433   13.1911 N.ar    1  UNL1       -0.2979
      4 C          64.2120   88.5080   14.6037 C.ar    1  UNL1        0.1750
      5 N          64.8445   89.6795   15.2947 N.ar    1  UNL1       -0.1847
      6 C          64.9911   90.9862   14.5731 C.ar    1  UNL1        0.2786
      7 O          65.6236   92.1578   15.2641 O.2     1  UNL1       -0.2654
      8 C          64.6518   92.4284   12.4388 C.3     1  UNL1        0.0622
      9 C          67.8833   94.3918    8.7533 C.3     1  UNL1        0.1537
     10 N          67.3533   93.5925    9.9067 N.ar    1  UNL1       -0.2477
     11 C          65.9580   93.6526   10.4538 C.ar    1  UNL1        0.0927
     12 C          65.8680   92.6900   11.6007 C.ar    1  UNL1        0.0220
     13 C          67.2077   92.0350   11.7623 C.ar    1  UNL1        0.1177
     14 N          68.1257   92.5927   10.7153 N.ar    1  UNL1       -0.1679
     15 C          63.0935   87.4717   12.5001 C.3     1  UNL1        0.1934
     16 C          61.8068   87.6487   11.7497 C.2     1  UNL1        0.2491
     17 O          61.0330   88.9273   11.8789 O.2     1  UNL1       -0.2727
     18 N          61.2939   86.5473   10.8701 N.am    1  UNL1       -0.2713
     19 C          62.0677   85.2687   10.7409 C.3     1  UNL1        0.1254
     20 C          62.9183   85.0261    9.5295 C.3     1  UNL1        0.1586
     21 O          62.6147   85.7385    8.2450 O.3     1  UNL1       -0.3802
     22 H          61.7574   85.4391    7.9040 H       1  UNL1        0.2105
     23 C          60.0072   86.7243   10.1198 C.3     1  UNL1        0.1203
     24 C          59.9335   87.6908    8.9749 C.ar    1  UNL1       -0.0023
     25 C          59.3747   87.2487    7.6550 C.ar    1  UNL1       -0.0026
     26 C          59.3010   88.2150    6.5102 C.ar    1  UNL1       -0.0003
     27 C          59.7860   89.6236    6.6853 C.ar    1  UNL1       -0.0000
     28 C          60.3448   90.0657    8.0053 C.ar    1  UNL1       -0.0003
     29 C          60.4185   89.0993    9.1501 C.ar    1  UNL1       -0.0026
     30 C          59.7123   90.5900    5.5405 C.ar    1  UNL1        0.0001
     31 C          60.9610   90.9794    4.8061 C.ar    1  UNL1        0.0009
     32 C          60.8873   91.9458    3.6613 C.ar    1  UNL1        0.0114
     33 C          59.5650   92.5229    3.2509 C.ar    1  UNL1        0.0577
     34 CL         59.4913   93.4894    2.1061 Cl      1  UNL1       -0.0822
     35 C          58.3164   92.1335    3.9853 C.ar    1  UNL1        0.0114
     36 C          58.3900   91.1671    5.1301 C.ar    1  UNL1        0.0009
     37 S          64.0653   87.2011   15.3254 S.3     1  UNL1       -0.0724
     38 C          64.8453   86.0026   14.8725 C.3     1  UNL1        0.0913
     39 C          64.1265   84.7552   14.4514 C.ar    1  UNL1       -0.0108
     40 C          62.9409   84.2726   15.2334 C.ar    1  UNL1       -0.0011
     41 C          62.2222   83.0252   14.8123 C.ar    1  UNL1        0.0293
     42 C          62.6889   82.2605   13.6092 C.ar    1  UNL1        0.1401
     43 F          61.9700   81.0131   13.1881 F       1  UNL1       -0.2042
     44 C          63.8744   82.7431   12.8272 C.ar    1  UNL1        0.0293
     45 C          64.5932   83.9905   13.2483 C.ar    1  UNL1       -0.0011
@<TRIPOS>BOND
     1     9    10    1
     2    10    11   ar
     3    11    12   ar
     4    12     8    1
     5     8     1    1
     6     1     2   ar
     7     2     3   ar
     8     3    15    1
     9    15    16    1
    10    16    17    2
    11    16    18   am
    12    18    19    1
    13    19    20    1
    14    20    21    1
    15    18    23    1
    16    23    24    1
    17    24    25   ar
    18    25    26   ar
    19    26    27   ar
    20    27    30    1
    21    30    31   ar
    22    31    32   ar
    23    32    33   ar
    24    33    34    1
    25    33    35   ar
    26    35    36   ar
    27    27    28   ar
    28    28    29   ar
    29     3     4   ar
    30     4    37    1
    31    37    38    1
    32    38    39    1
    33    39    40   ar
    34    40    41   ar
    35    41    42   ar
    36    42    43    1
    37    42    44   ar
    38    44    45   ar
    39     4     5   ar
    40     5     6   ar
    41     6     7    2
    42    12    13   ar
    43    13    14   ar
    44    14    10   ar
    45     6     1   ar
    46    29    24   ar
    47    45    39   ar
    48    36    30   ar
    49    21    22    1
@<TRIPOS>MOLECULE
*****
 45 49 0 0 0
SMALL
GASTEIGER

@<TRIPOS>ATOM
      1 C          61.7444   90.3085   12.1400 C.ar    1  UNL1        0.0574
      2 C          62.0550   90.1118   13.5942 C.ar    1  UNL1        0.0786
      3 N          63.3840   90.5403   14.1419 N.ar    1  UNL1       -0.2979
      4 C          64.4025   91.1656   13.2353 C.ar    1  UNL1        0.1750
      5 N          64.0919   91.3623   11.7811 N.ar    1  UNL1       -0.1847
      6 C          62.7628   90.9338   11.2334 C.ar    1  UNL1        0.2786
      7 O          62.4522   91.1305    9.7792 O.2     1  UNL1       -0.2654
      8 C          60.4153   89.8800   11.5923 C.3     1  UNL1        0.0622
      9 C          59.4629   86.9197    7.3249 C.3     1  UNL1        0.1537
     10 N          59.8936   87.3491    8.6961 N.ar    1  UNL1       -0.2477
     11 C          59.7828   88.7339    9.2617 C.ar    1  UNL1        0.0927
     12 C          60.3313   88.7098   10.6576 C.ar    1  UNL1        0.0220
     13 C          60.7811   87.3100   10.9547 C.ar    1  UNL1        0.1177
     14 N          60.5106   86.4690    9.7425 N.ar    1  UNL1       -0.1679
     15 C          63.6947   90.3436   15.5962 C.3     1  UNL1        0.1934
     16 C          63.4729   89.0052   16.2361 C.2     1  UNL1        0.2491
     17 O          62.7969   88.9154   17.5721 O.2     1  UNL1       -0.2727
     18 N          63.9271   87.7566   15.5400 N.am    1  UNL1       -0.2713
     19 C          64.6032   87.8463   14.2039 C.3     1  UNL1        0.1254
     20 C          63.7875   87.7987   12.9460 C.3     1  UNL1        0.1586
     21 O          63.1729   86.5055   12.4992 O.3     1  UNL1       -0.3802
     22 H          63.8744   85.8791   12.2616 H       1  UNL1        0.2105
     23 C          63.7053   86.4181   16.1799 C.3     1  UNL1        0.1203
     24 C          63.5419   85.1961   15.3254 C.ar    1  UNL1       -0.0023
     25 C          64.7210   84.6326   14.5892 C.ar    1  UNL1       -0.0026
     26 C          64.5576   83.4106   13.7347 C.ar    1  UNL1       -0.0003
     27 C          63.2150   82.7523   13.6165 C.ar    1  UNL1       -0.0000
     28 C          62.0359   83.3159   14.3527 C.ar    1  UNL1       -0.0003
     29 C          62.1993   84.5378   15.2071 C.ar    1  UNL1       -0.0026
     30 C          63.0516   81.5303   12.7620 C.ar    1  UNL1        0.0001
     31 C          62.6886   80.2180   13.3915 C.ar    1  UNL1        0.0009
     32 C          62.5251   78.9961   12.5371 C.ar    1  UNL1        0.0114
     33 C          62.7246   79.0864   11.0532 C.ar    1  UNL1        0.0577
     34 CL         62.5612   77.8644   10.1987 Cl      1  UNL1       -0.0822
     35 C          63.0876   80.3986   10.4237 C.ar    1  UNL1        0.0114
     36 C          63.2511   81.6206   11.2781 C.ar    1  UNL1        0.0009
     37 S          65.7316   91.5941   13.7831 S.3     1  UNL1       -0.0724
     38 C          66.2654   92.9609   13.4722 C.3     1  UNL1        0.0913
     39 C          66.6023   93.3308   12.0580 C.ar    1  UNL1       -0.0108
     40 C          67.3922   92.3847   11.2032 C.ar    1  UNL1       -0.0011
     41 C          67.7291   92.7546    9.7891 C.ar    1  UNL1        0.0293
     42 C          67.2759   94.0706    9.2298 C.ar    1  UNL1        0.1401
     43 F          67.6128   94.4405    7.8157 F       1  UNL1       -0.2042
     44 C          66.4860   95.0167   10.0847 C.ar    1  UNL1        0.0293
     45 C          66.1492   94.6468   11.4987 C.ar    1  UNL1       -0.0011
@<TRIPOS>BOND
     1     9    10    1
     2    10    11   ar
     3    11    12   ar
     4    12     8    1
     5     8     1    1
     6     1     2   ar
     7     2     3   ar
     8     3    15    1
     9    15    16    1
    10    16    17    2
    11    16    18   am
    12    18    19    1
    13    19    20    1
    14    20    21    1
    15    18    23    1
    16    23    24    1
    17    24    25   ar
    18    25    26   ar
    19    26    27   ar
    20    27    30    1
    21    30    31   ar
    22    31    32   ar
    23    32    33   ar
    24    33    34    1
    25    33    35   ar
    26    35    36   ar
    27    27    28   ar
    28    28    29   ar
    29     3     4   ar
    30     4    37    1
    31    37    38    1
    32    38    39    1
    33    39    40   ar
    34    40    41   ar
    35    41    42   ar
    36    42    43    1
    37    42    44   ar
    38    44    45   ar
    39     4     5   ar
    40     5     6   ar
    41     6     7    2
    42    12    13   ar
    43    13    14   ar
    44    14    10   ar
    45     6     1   ar
    46    29    24   ar
    47    45    39   ar
    48    36    30   ar
    49    21    22    1
@<TRIPOS>MOLECULE
*****
 45 49 0 0 0
SMALL
GASTEIGER

@<TRIPOS>ATOM
      1 C          64.0267   90.9691   11.8338 C.ar    1  UNL1        0.0574
      2 C          63.4802   89.6048   11.5338 C.ar    1  UNL1        0.0786
      3 N          63.4547   88.5550   12.6048 N.ar    1  UNL1       -0.2979
      4 C          63.9757   88.8694   13.9758 C.ar    1  UNL1        0.1750
      5 N          64.5222   90.2337   14.2758 N.ar    1  UNL1       -0.1847
      6 C          64.5477   91.2835   13.2048 C.ar    1  UNL1        0.2786
      7 O          65.0943   92.6479   13.5047 O.2     1  UNL1       -0.2654
      8 C          64.0522   92.0190   10.7627 C.3     1  UNL1        0.0622
      9 C          67.2573   96.1439    9.9924 C.3     1  UNL1        0.1537
     10 N          66.7575   94.7451   10.2013 N.ar    1  UNL1       -0.2477
     11 C          65.3245   94.3379   10.3769 C.ar    1  UNL1        0.0927
     12 C          65.2843   92.8491   10.5554 C.ar    1  UNL1        0.0220
     13 C          66.6924   92.3362   10.4902 C.ar    1  UNL1        0.1177
     14 N          67.6029   93.5080   10.2714 N.ar    1  UNL1       -0.1679
     15 C          62.9081   87.1906   12.3049 C.3     1  UNL1        0.1934
     16 C          61.9748   86.9945   11.1471 C.2     1  UNL1        0.2491
     17 O          62.4218   86.2128    9.9474 O.2     1  UNL1       -0.2727
     18 N          60.5944   87.5800   11.1890 N.am    1  UNL1       -0.2713
     19 C          60.1474   88.3616   12.3887 C.3     1  UNL1        0.1254
     20 C          58.7909   89.0016   12.4040 C.3     1  UNL1        0.1586
     21 O          57.7470   88.5237   13.3693 O.3     1  UNL1       -0.3802
     22 H          57.4946   87.6135   13.1481 H       1  UNL1        0.2105
     23 C          59.6611   87.3838   10.0313 C.3     1  UNL1        0.1203
     24 C          59.7546   88.2804    8.8323 C.ar    1  UNL1       -0.0023
     25 C          60.4881   89.5853    8.9270 C.ar    1  UNL1       -0.0026
     26 C          60.5817   90.4819    7.7281 C.ar    1  UNL1       -0.0003
     27 C          59.9416   90.0735    6.4345 C.ar    1  UNL1       -0.0000
     28 C          59.2080   88.7686    6.3398 C.ar    1  UNL1       -0.0003
     29 C          59.1145   87.8720    7.5387 C.ar    1  UNL1       -0.0026
     30 C          60.0351   90.9701    5.2355 C.ar    1  UNL1        0.0001
     31 C          58.8146   91.6856    4.7372 C.ar    1  UNL1        0.0009
     32 C          58.9080   92.5822    3.5382 C.ar    1  UNL1        0.0114
     33 C          60.2219   92.7632    2.8377 C.ar    1  UNL1        0.0577
     34 CL         60.3154   93.6597    1.6387 Cl      1  UNL1       -0.0822
     35 C          61.4424   92.0476    3.3361 C.ar    1  UNL1        0.0114
     36 C          61.3490   91.1511    4.5350 C.ar    1  UNL1        0.0009
     37 S          63.9502   87.8195   15.0469 S.3     1  UNL1       -0.0724
     38 C          64.8347   86.6132   14.9358 C.3     1  UNL1        0.0913
     39 C          64.2287   85.2527   14.7564 C.ar    1  UNL1       -0.0108
     40 C          63.0700   84.8294   15.6098 C.ar    1  UNL1       -0.0011
     41 C          62.4641   83.4690   15.4303 C.ar    1  UNL1        0.0293
     42 C          63.0168   82.5321   14.3975 C.ar    1  UNL1        0.1401
     43 F          62.4108   81.1716   14.2181 F       1  UNL1       -0.2042
     44 C          64.1755   82.9554   13.5442 C.ar    1  UNL1        0.0293
     45 C          64.7814   84.3158   13.7236 C.ar    1  UNL1       -0.0011
@<TRIPOS>BOND
     1     9    10    1
     2    10    11   ar
     3    11    12   ar
     4    12     8    1
     5     8     1    1
     6     1     2   ar
     7     2     3   ar
     8     3    15    1
     9    15    16    1
    10    16    17    2
    11    16    18   am
    12    18    19    1
    13    19    20    1
    14    20    21    1
    15    18    23    1
    16    23    24    1
    17    24    25   ar
    18    25    26   ar
    19    26    27   ar
    20    27    30    1
    21    30    31   ar
    22    31    32   ar
    23    32    33   ar
    24    33    34    1
    25    33    35   ar
    26    35    36   ar
    27    27    28   ar
    28    28    29   ar
    29     3     4   ar
    30     4    37    1
    31    37    38    1
    32    38    39    1
    33    39    40   ar
    34    40    41   ar
    35    41    42   ar
    36    42    43    1
    37    42    44   ar
    38    44    45   ar
    39     4     5   ar
    40     5     6   ar
    41     6     7    2
    42    12    13   ar
    43    13    14   ar
    44    14    10   ar
    45     6     1   ar
    46    29    24   ar
    47    45    39   ar
    48    36    30   ar
    49    21    22    1
