@<TRIPOS>MOLECULE
*****
 34 38 0 0 0
SMALL
GASTEIGER

@<TRIPOS>ATOM
      1 C          61.2981   88.3798   11.0507 C.3     1  UNL1        0.1096
      2 C          60.2932   88.9819   10.1138 C.3     1  UNL1        0.1622
      3 O          59.7376   88.1659    8.9846 O.3     1  UNL1       -0.3502
      4 C          60.1867   86.7477    8.7921 C.3     1  UNL1        0.1637
      5 C          61.1916   86.1456    9.7289 C.3     1  UNL1        0.1257
      6 N          61.7473   86.9616   10.8583 N.am    1  UNL1       -0.2723
      7 C          62.7522   86.3595   11.7951 C.2     1  UNL1        0.2506
      8 O          63.3079   87.1756   12.9243 O.2     1  UNL1       -0.2699
      9 C          63.2014   84.9414   11.6027 C.ar    1  UNL1        0.0729
     10 C          63.3886   84.3952   10.2182 C.ar    1  UNL1        0.0061
     11 C          63.8378   82.9771   10.0258 C.ar    1  UNL1        0.0002
     12 C          64.0997   82.1050   11.2178 C.ar    1  UNL1        0.0016
     13 C          63.9125   82.6511   12.6022 C.ar    1  UNL1        0.0211
     14 C          63.4634   84.0693   12.7946 C.ar    1  UNL1        0.1072
     15 N          63.2762   84.6154   14.1791 N.ar    1  UNL1       -0.1477
     16 N          64.3367   85.2550   15.0255 N.ar    1  UNL1       -0.1447
     17 C          63.7116   85.6527   16.3298 C.ar    1  UNL1        0.1446
     18 C          62.2647   85.2589   16.2894 C.ar    1  UNL1        0.1446
     19 N          61.9956   84.6179   14.9603 N.ar    1  UNL1       -0.1447
     20 C          61.8538   89.1959   12.1799 C.3     1  UNL1        0.0487
     21 C          65.0480   92.2631   11.3804 C.ar    1  UNL1        0.1416
     22 C          64.0691   91.9013   10.3030 C.ar    1  UNL1        0.0367
     23 C          63.0043   90.8789   10.5695 C.ar    1  UNL1       -0.0011
     24 C          62.9186   90.2183   11.9134 C.ar    1  UNL1       -0.0201
     25 C          63.8975   90.5800   12.9908 C.ar    1  UNL1        0.0019
     26 C          64.9622   91.6024   12.7243 C.ar    1  UNL1        0.0694
     27 C          65.9412   91.9641   13.8017 C.ar    1  UNL1        0.1652
     28 N          67.4149   91.8832   13.5340 N.ar    1  UNL1       -0.2249
     29 C          68.3939   92.2449   14.6114 C.ar    1  UNL1        0.1022
     30 C          67.8991   92.6875   15.9565 C.ar    1  UNL1        0.0414
     31 C          66.4254   92.7685   16.2243 C.ar    1  UNL1        0.1022
     32 N          65.4465   92.4067   15.1468 N.ar    1  UNL1       -0.2249
     33 C          67.1566   93.0262   10.0683 C.3     1  UNL1        0.2525
     34 O          66.1128   93.2855   11.1138 O.3     1  UNL1       -0.4713
@<TRIPOS>BOND
     1    33    34    1
     2    34    21    1
     3    21    22   ar
     4    22    23   ar
     5    23    24   ar
     6    24    20    1
     7     1    20    1
     8     1     2    1
     9     2     3    1
    10     3     4    1
    11     4     5    1
    12     5     6    1
    13     6     7   am
    14     7     8    2
    15     7     9    1
    16     9    10   ar
    17    10    11   ar
    18    11    12   ar
    19    12    13   ar
    20    13    14   ar
    21    14    15    1
    22    15    16   ar
    23    16    17   ar
    24    17    18   ar
    25    18    19   ar
    26    24    25   ar
    27    25    26   ar
    28    26    27    1
    29    27    28   ar
    30    28    29   ar
    31    29    30   ar
    32    30    31   ar
    33    31    32   ar
    34    26    21   ar
    35    32    27   ar
    36     6     1    1
    37    14     9   ar
    38    19    15   ar
@<TRIPOS>MOLECULE
*****
 34 38 0 0 0
SMALL
GASTEIGER

@<TRIPOS>ATOM
      1 C          62.1610   89.5792   11.9007 C.3     1  UNL1        0.1096
      2 C          61.4691   90.6333   11.0880 C.3     1  UNL1        0.1622
      3 O          60.8967   90.2894    9.7449 O.3     1  UNL1       -0.3502
      4 C          61.0161   88.8914    9.2143 C.3     1  UNL1        0.1637
      5 C          61.7079   87.8374   10.0269 C.3     1  UNL1        0.1257
      6 N          62.2804   88.1812   11.3701 N.am    1  UNL1       -0.2723
      7 C          62.9722   87.1272   12.1827 C.2     1  UNL1        0.2506
      8 O          63.5446   87.4711   13.5259 O.2     1  UNL1       -0.2699
      9 C          63.0916   85.7292   11.6522 C.ar    1  UNL1        0.0729
     10 C          63.1077   85.4877   10.1719 C.ar    1  UNL1        0.0061
     11 C          63.2271   84.0897    9.6413 C.ar    1  UNL1        0.0002
     12 C          63.3304   82.9333   10.5910 C.ar    1  UNL1        0.0016
     13 C          63.3144   83.1749   12.0713 C.ar    1  UNL1        0.0211
     14 C          63.1949   84.5729   12.6019 C.ar    1  UNL1        0.1072
     15 N          63.1789   84.8144   14.0823 N.ar    1  UNL1       -0.1477
     16 N          61.9669   84.7938   14.9659 N.ar    1  UNL1       -0.1447
     17 C          62.4108   85.0855   16.3686 C.ar    1  UNL1        0.1446
     18 C          63.8973   85.2865   16.3520 C.ar    1  UNL1        0.1446
     19 N          64.3719   85.1189   14.9390 N.ar    1  UNL1       -0.1447
     20 C          62.7333   89.9231   13.2438 C.3     1  UNL1        0.0487
     21 C          66.6832   92.0606   13.5261 C.ar    1  UNL1        0.1416
     22 C          66.2109   91.2043   14.6634 C.ar    1  UNL1        0.0367
     23 C          64.8943   90.4918   14.5693 C.ar    1  UNL1       -0.0011
     24 C          64.0499   90.6356   13.3379 C.ar    1  UNL1       -0.0201
     25 C          64.5222   91.4919   12.2006 C.ar    1  UNL1        0.0019
     26 C          65.8388   92.2045   12.2947 C.ar    1  UNL1        0.0694
     27 C          66.3111   93.0609   11.1573 C.ar    1  UNL1        0.1652
     28 N          65.6972   94.4103   10.9293 N.ar    1  UNL1       -0.2249
     29 C          66.1694   95.2667    9.7920 C.ar    1  UNL1        0.1022
     30 C          67.2556   94.7736    8.8825 C.ar    1  UNL1        0.0414
     31 C          67.8696   93.4242    9.1105 C.ar    1  UNL1        0.1022
     32 N          67.3973   92.5678   10.2479 N.ar    1  UNL1       -0.2249
     33 C          68.7842   92.7338   14.8980 C.3     1  UNL1        0.2525
     34 O          67.9998   92.7732   13.6202 O.3     1  UNL1       -0.4713
@<TRIPOS>BOND
     1    33    34    1
     2    34    21    1
     3    21    22   ar
     4    22    23   ar
     5    23    24   ar
     6    24    20    1
     7     1    20    1
     8     1     2    1
     9     2     3    1
    10     3     4    1
    11     4     5    1
    12     5     6    1
    13     6     7   am
    14     7     8    2
    15     7     9    1
    16     9    10   ar
    17    10    11   ar
    18    11    12   ar
    19    12    13   ar
    20    13    14   ar
    21    14    15    1
    22    15    16   ar
    23    16    17   ar
    24    17    18   ar
    25    18    19   ar
    26    24    25   ar
    27    25    26   ar
    28    26    27    1
    29    27    28   ar
    30    28    29   ar
    31    29    30   ar
    32    30    31   ar
    33    31    32   ar
    34    26    21   ar
    35    32    27   ar
    36     6     1    1
    37    14     9   ar
    38    19    15   ar
@<TRIPOS>MOLECULE
*****
 34 38 0 0 0
SMALL
GASTEIGER

@<TRIPOS>ATOM
      1 C          63.3114   88.7999   15.4051 C.3     1  UNL1        0.1096
      2 C          63.1662   89.1379   16.8593 C.3     1  UNL1        0.1622
      3 O          63.1008   88.0417   17.8811 O.3     1  UNL1       -0.3502
      4 C          63.1807   86.6076   17.4487 C.3     1  UNL1        0.1637
      5 C          63.3259   86.2696   15.9946 C.3     1  UNL1        0.1257
      6 N          63.3913   87.3658   14.9727 N.am    1  UNL1       -0.2723
      7 C          63.5366   87.0279   13.5185 C.2     1  UNL1        0.2506
      8 O          63.6020   88.1241   12.4968 O.2     1  UNL1       -0.2699
      9 C          63.6165   85.5938   13.0862 C.ar    1  UNL1        0.0729
     10 C          64.4514   84.6210   13.8650 C.ar    1  UNL1        0.0061
     11 C          64.5313   83.1869   13.4326 C.ar    1  UNL1        0.0002
     12 C          63.7762   82.7256   12.2214 C.ar    1  UNL1        0.0016
     13 C          62.9413   83.6983   11.4426 C.ar    1  UNL1        0.0211
     14 C          62.8614   85.1324   11.8750 C.ar    1  UNL1        0.1072
     15 N          62.0265   86.1052   11.0961 N.ar    1  UNL1       -0.1477
     16 N          62.2473   86.5119    9.6692 N.ar    1  UNL1       -0.1447
     17 C          61.1815   87.5001    9.2986 C.ar    1  UNL1        0.1446
     18 C          60.3018   87.7041   10.4964 C.ar    1  UNL1        0.1446
     19 N          60.8241   86.8421   11.6072 N.ar    1  UNL1       -0.1447
     20 C          63.3768   89.8961   14.3833 C.3     1  UNL1        0.0487
     21 C          66.7286   92.8959   14.5129 C.ar    1  UNL1        0.1416
     22 C          66.1147   92.4017   15.7891 C.ar    1  UNL1        0.0367
     23 C          64.9974   91.4017   15.7459 C.ar    1  UNL1       -0.0011
     24 C          64.4941   90.8960   14.4265 C.ar    1  UNL1       -0.0201
     25 C          65.1080   91.3903   13.1503 C.ar    1  UNL1        0.0019
     26 C          66.2253   92.3902   13.1935 C.ar    1  UNL1        0.0694
     27 C          66.8392   92.8845   11.9172 C.ar    1  UNL1        0.1652
     28 N          67.8143   92.0228   11.1711 N.ar    1  UNL1       -0.2249
     29 C          68.4283   92.5170    9.8949 C.ar    1  UNL1        0.1022
     30 C          68.0671   93.8729    9.3646 C.ar    1  UNL1        0.0414
     31 C          67.0919   94.7346   10.1107 C.ar    1  UNL1        0.1022
     32 N          66.4780   94.2403   11.3870 N.ar    1  UNL1       -0.2249
     33 C          68.7895   93.9161   15.7218 C.3     1  UNL1        0.2525
     34 O          67.8458   93.8959   14.5561 O.3     1  UNL1       -0.4713
@<TRIPOS>BOND
     1    33    34    1
     2    34    21    1
     3    21    22   ar
     4    22    23   ar
     5    23    24   ar
     6    24    20    1
     7     1    20    1
     8     1     2    1
     9     2     3    1
    10     3     4    1
    11     4     5    1
    12     5     6    1
    13     6     7   am
    14     7     8    2
    15     7     9    1
    16     9    10   ar
    17    10    11   ar
    18    11    12   ar
    19    12    13   ar
    20    13    14   ar
    21    14    15    1
    22    15    16   ar
    23    16    17   ar
    24    17    18   ar
    25    18    19   ar
    26    24    25   ar
    27    25    26   ar
    28    26    27    1
    29    27    28   ar
    30    28    29   ar
    31    29    30   ar
    32    30    31   ar
    33    31    32   ar
    34    26    21   ar
    35    32    27   ar
    36     6     1    1
    37    14     9   ar
    38    19    15   ar
