@<TRIPOS>MOLECULE
*****
 26 29 0 0 0
SMALL
GASTEIGER

@<TRIPOS>ATOM
      1 N          63.2629   89.1681   12.5013 N.ar    1  UNL1       -0.2069
      2 C          62.4929   89.6199   11.2960 C.ar    1  UNL1        0.1112
      3 C          61.9668   88.4007   10.5982 C.ar    1  UNL1        0.0780
      4 CL         61.1409   88.3890    9.3462 Cl      1  UNL1       -0.0806
      5 C          62.4117   87.1954   11.3724 C.ar    1  UNL1        0.0293
      6 C          62.1909   85.7273   11.1582 C.ar    1  UNL1       -0.0022
      7 C          62.7711   84.7334   12.1203 C.ar    1  UNL1       -0.0246
      8 C          63.5721   85.2076   13.2964 C.ar    1  UNL1       -0.0232
      9 C          63.7930   86.6757   13.5106 C.ar    1  UNL1        0.0145
     10 C          63.2128   87.6697   12.5486 C.ar    1  UNL1        0.0831
     11 C          64.2338   84.3920   14.3674 C.3     1  UNL1        0.0431
     12 C          64.2578   82.9006   14.5266 C.3     1  UNL1        0.0733
     13 N          63.6262   81.8567   13.6543 N.3     1  UNL1       -0.2969
     14 C          62.8144   82.0461   12.4072 C.3     1  UNL1        0.0733
     15 C          62.4339   83.3264   11.7245 C.3     1  UNL1        0.0431
     16 H          63.0130   81.3363   14.2817 H       1  UNL1        0.1233
     17 O          63.3496   89.2855   14.6176 O.2     1  UNL1       -0.1476
     18 S          63.9607   90.0583   13.4866 S.O2    1  UNL1        0.0860
     19 O          64.5718   90.8311   12.3554 O.2     1  UNL1       -0.1476
     20 C          64.6584   90.9485   14.4717 C.ar    1  UNL1        0.1285
     21 C          64.0281   91.2334   15.8028 C.ar    1  UNL1        0.0204
     22 C          64.7258   92.1237   16.7879 C.ar    1  UNL1        0.0023
     23 C          66.0539   92.7291   16.4421 C.ar    1  UNL1        0.0115
     24 C          66.6843   92.4442   15.1111 C.ar    1  UNL1        0.0590
     25 CL         68.0124   93.0497   14.7653 Cl      1  UNL1       -0.0822
     26 C          65.9865   91.5540   14.1260 C.ar    1  UNL1        0.0318
@<TRIPOS>BOND
     1    17    18    2
     2    18    19    2
     3    18    20    1
     4    20    21   ar
     5    21    22   ar
     6    22    23   ar
     7    23    24   ar
     8    24    25    1
     9    24    26   ar
    10    18     1    1
    11     1     2   ar
    12     2     3   ar
    13     3     4    1
    14     3     5   ar
    15     5     6   ar
    16     6     7   ar
    17     7     8   ar
    18     8     9   ar
    19     9    10   ar
    20     8    11    1
    21    11    12    1
    22    12    13    1
    23    13    14    1
    24    14    15    1
    25    26    20   ar
    26    10     1   ar
    27    10     5   ar
    28    15     7    1
    29    13    16    1
@<TRIPOS>MOLECULE
*****
 26 29 0 0 0
SMALL
GASTEIGER

@<TRIPOS>ATOM
      1 N          62.8641   85.6561   12.4455 N.ar    1  UNL1       -0.2069
      2 C          63.6548   86.6107   13.2902 C.ar    1  UNL1        0.1112
      3 C          63.4286   87.9955   12.7600 C.ar    1  UNL1        0.0780
      4 CL         64.0278   89.2574   13.3064 Cl      1  UNL1       -0.0806
      5 C          62.4981   87.8968   11.5878 C.ar    1  UNL1        0.0293
      6 C          61.9233   88.9368   10.6722 C.ar    1  UNL1       -0.0022
      7 C          60.9996   88.5308    9.5621 C.ar    1  UNL1       -0.0246
      8 C          60.6508   87.0851    9.3678 C.ar    1  UNL1       -0.0232
      9 C          61.2255   86.0451   10.2833 C.ar    1  UNL1        0.0145
     10 C          62.1491   86.4510   11.3933 C.ar    1  UNL1        0.0831
     11 C          59.7569   86.4697    8.3322 C.3     1  UNL1        0.0431
     12 C          58.9911   87.1484    7.2353 C.3     1  UNL1        0.0733
     13 N          58.9301   88.6097    6.9031 N.3     1  UNL1       -0.2969
     14 C          59.6198   89.7536    7.5857 C.3     1  UNL1        0.0733
     15 C          60.5409   89.7185    8.7691 C.3     1  UNL1        0.0431
     16 H          57.9383   88.8422    6.9542 H       1  UNL1        0.1233
     17 O          62.0553   84.3530   13.9109 O.2     1  UNL1       -0.1476
     18 S          62.7996   84.1679   12.6219 S.O2    1  UNL1        0.0860
     19 O          63.5439   83.9829   11.3327 O.2     1  UNL1       -0.1476
     20 C          62.7351   82.6798   12.7982 C.ar    1  UNL1        0.1285
     21 C          62.5491   82.0939   14.1666 C.ar    1  UNL1        0.0204
     22 C          62.4847   80.6058   14.3429 C.ar    1  UNL1        0.0023
     23 C          62.6061   79.7033   13.1509 C.ar    1  UNL1        0.0115
     24 C          62.7920   80.2891   11.7826 C.ar    1  UNL1        0.0590
     25 CL         62.9134   79.3866   10.5906 Cl      1  UNL1       -0.0822
     26 C          62.8565   81.7772   11.6062 C.ar    1  UNL1        0.0318
@<TRIPOS>BOND
     1    17    18    2
     2    18    19    2
     3    18    20    1
     4    20    21   ar
     5    21    22   ar
     6    22    23   ar
     7    23    24   ar
     8    24    25    1
     9    24    26   ar
    10    18     1    1
    11     1     2   ar
    12     2     3   ar
    13     3     4    1
    14     3     5   ar
    15     5     6   ar
    16     6     7   ar
    17     7     8   ar
    18     8     9   ar
    19     9    10   ar
    20     8    11    1
    21    11    12    1
    22    12    13    1
    23    13    14    1
    24    14    15    1
    25    26    20   ar
    26    10     1   ar
    27    10     5   ar
    28    15     7    1
    29    13    16    1
@<TRIPOS>MOLECULE
*****
 26 29 0 0 0
SMALL
GASTEIGER

@<TRIPOS>ATOM
      1 N          63.5201   87.4187   13.2221 N.ar    1  UNL1       -0.2069
      2 C          63.8879   86.0124   13.5921 C.ar    1  UNL1        0.1112
      3 C          63.2489   85.0892   12.5973 C.ar    1  UNL1        0.0780
      4 CL         63.3542   83.5930   12.5888 Cl      1  UNL1       -0.0806
      5 C          62.4863   85.9250   11.6126 C.ar    1  UNL1        0.0293
      6 C          61.6608   85.5611   10.4141 C.ar    1  UNL1       -0.0022
      7 C          61.0029   86.6370    9.6018 C.ar    1  UNL1       -0.0246
      8 C          61.1705   88.0766    9.9880 C.ar    1  UNL1       -0.0232
      9 C          61.9959   88.4406   11.1864 C.ar    1  UNL1        0.0145
     10 C          62.6538   87.3648   11.9987 C.ar    1  UNL1        0.0831
     11 C          60.6054   89.2957    9.3212 C.3     1  UNL1        0.0431
     12 C          59.7332   89.3760    8.1034 C.3     1  UNL1        0.0733
     13 N          59.2107   88.2573    7.2519 N.3     1  UNL1       -0.2969
     14 C          59.4313   86.7818    7.4076 C.3     1  UNL1        0.0733
     15 C          60.2289   86.0607    8.4535 C.3     1  UNL1        0.0431
     16 H          59.5519   88.4691    6.3143 H       1  UNL1        0.1233
     17 O          63.9361   89.4198   12.6543 O.2     1  UNL1       -0.1476
     18 S          63.9440   88.6610   13.9481 S.O2    1  UNL1        0.0860
     19 O          63.9519   87.9021   15.2420 O.2     1  UNL1       -0.1476
     20 C          64.3680   89.9032   14.6741 C.ar    1  UNL1        0.1285
     21 C          63.6528   90.3222   15.9243 C.ar    1  UNL1        0.0204
     22 C          64.0767   91.5644   16.6504 C.ar    1  UNL1        0.0023
     23 C          65.2158   92.3877   16.1263 C.ar    1  UNL1        0.0115
     24 C          65.9310   91.9686   14.8761 C.ar    1  UNL1        0.0590
     25 CL         67.0701   92.7919   14.3521 Cl      1  UNL1       -0.0822
     26 C          65.5071   90.7265   14.1501 C.ar    1  UNL1        0.0318
@<TRIPOS>BOND
     1    17    18    2
     2    18    19    2
     3    18    20    1
     4    20    21   ar
     5    21    22   ar
     6    22    23   ar
     7    23    24   ar
     8    24    25    1
     9    24    26   ar
    10    18     1    1
    11     1     2   ar
    12     2     3   ar
    13     3     4    1
    14     3     5   ar
    15     5     6   ar
    16     6     7   ar
    17     7     8   ar
    18     8     9   ar
    19     9    10   ar
    20     8    11    1
    21    11    12    1
    22    12    13    1
    23    13    14    1
    24    14    15    1
    25    26    20   ar
    26    10     1   ar
    27    10     5   ar
    28    15     7    1
    29    13    16    1
@<TRIPOS>MOLECULE
*****
 26 29 0 0 0
SMALL
GASTEIGER

@<TRIPOS>ATOM
      1 N          63.1200   89.5066   11.7294 N.ar    1  UNL1       -0.2069
      2 C          62.1376   89.6879   10.6105 C.ar    1  UNL1        0.1112
      3 C          61.5002   88.3586   10.3334 C.ar    1  UNL1        0.0780
      4 CL         60.4575   88.0810    9.2915 Cl      1  UNL1       -0.0806
      5 C          62.0887   87.3559   11.2810 C.ar    1  UNL1        0.0293
      6 C          61.8424   85.8883   11.4697 C.ar    1  UNL1       -0.0022
      7 C          62.5971   85.1302   12.5213 C.ar    1  UNL1       -0.0246
      8 C          63.5981   85.8397   13.3840 C.ar    1  UNL1       -0.0232
      9 C          63.8445   87.3072   13.1954 C.ar    1  UNL1        0.0145
     10 C          63.0898   88.0653   12.1439 C.ar    1  UNL1        0.0831
     11 C          64.4518   85.2775   14.4819 C.3     1  UNL1        0.0431
     12 C          64.5152   83.8668   14.9880 C.3     1  UNL1        0.0733
     13 N          63.7406   82.6701   14.5213 N.3     1  UNL1       -0.2969
     14 C          62.7113   82.5884   13.4332 C.3     1  UNL1        0.0733
     15 C          62.2024   83.6832   12.5431 C.3     1  UNL1        0.0431
     16 H          63.2575   82.3372   15.3556 H       1  UNL1        0.1233
     17 O          64.1697   91.1866   10.9707 O.2     1  UNL1       -0.1476
     18 S          63.9814   90.5785   12.3288 S.O2    1  UNL1        0.0860
     19 O          63.7930   89.9702   13.6870 O.2     1  UNL1       -0.1476
     20 C          64.8427   91.6502   12.9283 C.ar    1  UNL1        0.1285
     21 C          65.3246   92.7882   12.0780 C.ar    1  UNL1        0.0204
     22 C          66.1859   93.8599   12.6775 C.ar    1  UNL1        0.0023
     23 C          66.5656   93.7938   14.1271 C.ar    1  UNL1        0.0115
     24 C          66.0838   92.6557   14.9773 C.ar    1  UNL1        0.0590
     25 CL         66.4634   92.5896   16.4270 Cl      1  UNL1       -0.0822
     26 C          65.2224   91.5840   14.3779 C.ar    1  UNL1        0.0318
@<TRIPOS>BOND
     1    17    18    2
     2    18    19    2
     3    18    20    1
     4    20    21   ar
     5    21    22   ar
     6    22    23   ar
     7    23    24   ar
     8    24    25    1
     9    24    26   ar
    10    18     1    1
    11     1     2   ar
    12     2     3   ar
    13     3     4    1
    14     3     5   ar
    15     5     6   ar
    16     6     7   ar
    17     7     8   ar
    18     8     9   ar
    19     9    10   ar
    20     8    11    1
    21    11    12    1
    22    12    13    1
    23    13    14    1
    24    14    15    1
    25    26    20   ar
    26    10     1   ar
    27    10     5   ar
    28    15     7    1
    29    13    16    1
@<TRIPOS>MOLECULE
*****
 26 29 0 0 0
SMALL
GASTEIGER

@<TRIPOS>ATOM
      1 N          63.6430   88.4425   15.0157 N.ar    1  UNL1       -0.2069
      2 C          63.3478   88.6137   16.4763 C.ar    1  UNL1        0.1112
      3 C          63.0769   87.2573   17.0566 C.ar    1  UNL1        0.0780
      4 CL         62.7377   86.9623   18.4876 Cl      1  UNL1       -0.0806
      5 C          63.2047   86.2478   15.9546 C.ar    1  UNL1        0.0293
      6 C          63.0476   84.7561   15.9368 C.ar    1  UNL1       -0.0022
      7 C          63.2405   83.9969   14.6574 C.ar    1  UNL1       -0.0246
      8 C          63.5904   84.7293   13.3962 C.ar    1  UNL1       -0.0232
      9 C          63.7475   86.2210   13.4140 C.ar    1  UNL1        0.0145
     10 C          63.5546   86.9802   14.6932 C.ar    1  UNL1        0.0831
     11 C          63.8248   84.1700   12.0242 C.3     1  UNL1        0.0431
     12 C          63.7671   82.7400   11.5748 C.3     1  UNL1        0.0733
     13 N          63.4608   81.5164   12.3863 N.3     1  UNL1       -0.2969
     14 C          63.1365   81.4202   13.8477 C.3     1  UNL1        0.0733
     15 C          63.0385   82.5242   14.8585 C.3     1  UNL1        0.0431
     16 H          64.2787   80.9188   12.2662 H       1  UNL1        0.1233
     17 O          65.3192   89.6990   14.6820 O.2     1  UNL1       -0.1476
     18 S          63.9694   89.5406   14.0474 S.O2    1  UNL1        0.0860
     19 O          62.6195   89.3821   13.4128 O.2     1  UNL1       -0.1476
     20 C          64.2957   90.6387   13.0791 C.ar    1  UNL1        0.1285
     21 C          63.6706   90.6466   11.7155 C.ar    1  UNL1        0.0204
     22 C          63.9969   91.7447   10.7472 C.ar    1  UNL1        0.0023
     23 C          64.9483   92.8350   11.1423 C.ar    1  UNL1        0.0115
     24 C          65.5735   92.8271   12.5059 C.ar    1  UNL1        0.0590
     25 CL         66.5249   93.9173   12.9009 Cl      1  UNL1       -0.0822
     26 C          65.2472   91.7290   13.4742 C.ar    1  UNL1        0.0318
@<TRIPOS>BOND
     1    17    18    2
     2    18    19    2
     3    18    20    1
     4    20    21   ar
     5    21    22   ar
     6    22    23   ar
     7    23    24   ar
     8    24    25    1
     9    24    26   ar
    10    18     1    1
    11     1     2   ar
    12     2     3   ar
    13     3     4    1
    14     3     5   ar
    15     5     6   ar
    16     6     7   ar
    17     7     8   ar
    18     8     9   ar
    19     9    10   ar
    20     8    11    1
    21    11    12    1
    22    12    13    1
    23    13    14    1
    24    14    15    1
    25    26    20   ar
    26    10     1   ar
    27    10     5   ar
    28    15     7    1
    29    13    16    1
@<TRIPOS>MOLECULE
*****
 26 29 0 0 0
SMALL
GASTEIGER

@<TRIPOS>ATOM
      1 N          62.1296   85.8990   11.1374 N.ar    1  UNL1       -0.2069
      2 C          61.3354   86.1262    9.8853 C.ar    1  UNL1        0.1112
      3 C          61.3619   87.5945    9.5796 C.ar    1  UNL1        0.0780
      4 CL         60.6949   88.2646    8.4152 Cl      1  UNL1       -0.0806
      5 C          62.1724   88.2747   10.6427 C.ar    1  UNL1        0.0293
      6 C          62.5398   89.7130   10.8584 C.ar    1  UNL1       -0.0022
      7 C          63.3816   90.1034   12.0370 C.ar    1  UNL1       -0.0246
      8 C          63.8560   89.0556   12.9997 C.ar    1  UNL1       -0.0232
      9 C          63.4887   87.6174   12.7840 C.ar    1  UNL1        0.0145
     10 C          62.6469   87.2269   11.6055 C.ar    1  UNL1        0.0831
     11 C          64.6977   89.2277   14.2294 C.3     1  UNL1        0.0431
     12 C          65.2727   90.4903   14.7999 C.3     1  UNL1        0.0733
     13 N          65.1481   91.8923   14.2817 N.3     1  UNL1       -0.2969
     14 C          64.4177   92.3783   13.0650 C.3     1  UNL1        0.0733
     15 C          63.6316   91.5822   12.0660 C.3     1  UNL1        0.0431
     16 H          66.1106   92.1994   14.1416 H       1  UNL1        0.1233
     17 O          62.8627   84.0108   10.5073 O.2     1  UNL1       -0.1476
     18 S          62.3651   84.5763   11.8044 S.O2    1  UNL1        0.0860
     19 O          61.8675   85.1418   13.1015 O.2     1  UNL1       -0.1476
     20 C          62.6006   83.2536   12.4714 C.ar    1  UNL1        0.1285
     21 C          62.8712   83.1947   13.9457 C.ar    1  UNL1        0.0204
     22 C          63.1067   81.8721   14.6127 C.ar    1  UNL1        0.0023
     23 C          63.0717   80.6082   13.8057 C.ar    1  UNL1        0.0115
     24 C          62.8011   80.6671   12.3314 C.ar    1  UNL1        0.0590
     25 CL         62.7661   79.4032   11.5244 Cl      1  UNL1       -0.0822
     26 C          62.5656   81.9897   11.6644 C.ar    1  UNL1        0.0318
@<TRIPOS>BOND
     1    17    18    2
     2    18    19    2
     3    18    20    1
     4    20    21   ar
     5    21    22   ar
     6    22    23   ar
     7    23    24   ar
     8    24    25    1
     9    24    26   ar
    10    18     1    1
    11     1     2   ar
    12     2     3   ar
    13     3     4    1
    14     3     5   ar
    15     5     6   ar
    16     6     7   ar
    17     7     8   ar
    18     8     9   ar
    19     9    10   ar
    20     8    11    1
    21    11    12    1
    22    12    13    1
    23    13    14    1
    24    14    15    1
    25    26    20   ar
    26    10     1   ar
    27    10     5   ar
    28    15     7    1
    29    13    16    1
@<TRIPOS>MOLECULE
*****
 26 29 0 0 0
SMALL
GASTEIGER

@<TRIPOS>ATOM
      1 N          63.2169   85.5475   15.3512 N.ar    1  UNL1       -0.2069
      2 C          62.7835   85.2518   16.7565 C.ar    1  UNL1        0.1112
      3 C          62.8437   86.5303   17.5387 C.ar    1  UNL1        0.0780
      4 CL         62.4945   86.6941   18.9883 Cl      1  UNL1       -0.0806
      5 C          63.3142   87.6160   16.6170 C.ar    1  UNL1        0.0293
      6 C          63.5625   89.0794   16.8341 C.ar    1  UNL1       -0.0022
      7 C          64.0415   89.9353   15.6991 C.ar    1  UNL1       -0.0246
      8 C          64.2721   89.3279   14.3472 C.ar    1  UNL1       -0.0232
      9 C          64.0239   87.8646   14.1300 C.ar    1  UNL1        0.0145
     10 C          63.5449   87.0086   15.2650 C.ar    1  UNL1        0.0831
     11 C          64.7442   89.9960   13.0899 C.3     1  UNL1        0.0431
     12 C          65.1022   91.4367   12.8741 C.3     1  UNL1        0.0733
     13 N          65.0765   92.5648   13.8622 N.3     1  UNL1       -0.2969
     14 C          64.6865   92.5311   15.3103 C.3     1  UNL1        0.0733
     15 C          64.2259   91.3608   16.1278 C.3     1  UNL1        0.0431
     16 H          64.4521   93.2553   13.4455 H       1  UNL1        0.1233
     17 O          64.6776   84.1587   14.6897 O.2     1  UNL1       -0.1476
     18 S          63.3066   84.5561   14.2291 S.O2    1  UNL1        0.0860
     19 O          61.9354   84.9535   13.7685 O.2     1  UNL1       -0.1476
     20 C          63.3962   83.5648   13.1070 C.ar    1  UNL1        0.1285
     21 C          63.9463   83.9857   11.7764 C.ar    1  UNL1        0.0204
     22 C          64.0358   82.9944   10.6543 C.ar    1  UNL1        0.0023
     23 C          63.5754   81.5821   10.8626 C.ar    1  UNL1        0.0115
     24 C          63.0253   81.1611   12.1932 C.ar    1  UNL1        0.0590
     25 CL         62.5648   79.7489   12.4014 Cl      1  UNL1       -0.0822
     26 C          62.9357   82.1525   13.3153 C.ar    1  UNL1        0.0318
@<TRIPOS>BOND
     1    17    18    2
     2    18    19    2
     3    18    20    1
     4    20    21   ar
     5    21    22   ar
     6    22    23   ar
     7    23    24   ar
     8    24    25    1
     9    24    26   ar
    10    18     1    1
    11     1     2   ar
    12     2     3   ar
    13     3     4    1
    14     3     5   ar
    15     5     6   ar
    16     6     7   ar
    17     7     8   ar
    18     8     9   ar
    19     9    10   ar
    20     8    11    1
    21    11    12    1
    22    12    13    1
    23    13    14    1
    24    14    15    1
    25    26    20   ar
    26    10     1   ar
    27    10     5   ar
    28    15     7    1
    29    13    16    1
@<TRIPOS>MOLECULE
*****
 26 29 0 0 0
SMALL
GASTEIGER

@<TRIPOS>ATOM
      1 N          62.7565   87.9409   11.4942 N.ar    1  UNL1       -0.2069
      2 C          62.0050   88.1031   10.2063 C.ar    1  UNL1        0.1112
      3 C          61.6042   86.7389    9.7284 C.ar    1  UNL1        0.0780
      4 CL         60.8348   86.4337    8.4776 Cl      1  UNL1       -0.0806
      5 C          62.1081   85.7336   10.7211 C.ar    1  UNL1        0.0293
      6 C          62.0104   84.2376   10.7722 C.ar    1  UNL1       -0.0022
      7 C          62.6249   83.4845   11.9147 C.ar    1  UNL1       -0.0246
      8 C          63.3370   84.2273   13.0060 C.ar    1  UNL1       -0.0232
      9 C          63.4347   85.7232   12.9549 C.ar    1  UNL1        0.0145
     10 C          62.8202   86.4764   11.8124 C.ar    1  UNL1        0.0831
     11 C          64.0143   83.6753   14.2253 C.3     1  UNL1        0.0431
     12 C          64.1467   82.2440   14.6543 C.3     1  UNL1        0.0733
     13 N          63.6346   81.0114   13.9700 N.3     1  UNL1       -0.2969
     14 C          62.8635   80.9055   12.6877 C.3     1  UNL1        0.0733
     15 C          62.4141   82.0061   11.7730 C.3     1  UNL1        0.0431
     16 H          63.0377   80.5628   14.6649 H       1  UNL1        0.1233
     17 O          63.7398   88.0554   13.3704 O.2     1  UNL1       -0.1476
     18 S          63.3416   89.0486   12.3193 S.O2    1  UNL1        0.0860
     19 O          62.9433   90.0418   11.2680 O.2     1  UNL1       -0.1476
     20 C          63.9267   90.1563   13.1442 C.ar    1  UNL1        0.1285
     21 C          64.7861   91.2009   12.4957 C.ar    1  UNL1        0.0204
     22 C          65.3711   92.3086   13.3207 C.ar    1  UNL1        0.0023
     23 C          65.0969   92.3719   14.7940 C.ar    1  UNL1        0.0115
     24 C          64.2375   91.3274   15.4424 C.ar    1  UNL1        0.0590
     25 CL         63.9633   91.3907   16.9158 Cl      1  UNL1       -0.0822
     26 C          63.6524   90.2196   14.6175 C.ar    1  UNL1        0.0318
@<TRIPOS>BOND
     1    17    18    2
     2    18    19    2
     3    18    20    1
     4    20    21   ar
     5    21    22   ar
     6    22    23   ar
     7    23    24   ar
     8    24    25    1
     9    24    26   ar
    10    18     1    1
    11     1     2   ar
    12     2     3   ar
    13     3     4    1
    14     3     5   ar
    15     5     6   ar
    16     6     7   ar
    17     7     8   ar
    18     8     9   ar
    19     9    10   ar
    20     8    11    1
    21    11    12    1
    22    12    13    1
    23    13    14    1
    24    14    15    1
    25    26    20   ar
    26    10     1   ar
    27    10     5   ar
    28    15     7    1
    29    13    16    1
@<TRIPOS>MOLECULE
*****
 26 29 0 0 0
SMALL
GASTEIGER

@<TRIPOS>ATOM
      1 N          60.6293   94.2088   -1.6667 N.ar    1  UNL1       -0.2069
      2 C          61.4743   95.2990   -2.2561 C.ar    1  UNL1        0.1112
      3 C          60.9874   95.5601   -3.6507 C.ar    1  UNL1        0.0780
      4 CL         61.5480   96.5724   -4.6051 Cl      1  UNL1       -0.0806
      5 C          59.8415   94.6313   -3.9231 C.ar    1  UNL1        0.0293
      6 C          58.9710   94.4382   -5.1294 C.ar    1  UNL1       -0.0022
      7 C          57.8792   93.4098   -5.1094 C.ar    1  UNL1       -0.0246
      8 C          57.6579   92.5746   -3.8833 C.ar    1  UNL1       -0.0232
      9 C          58.5284   92.7677   -2.6771 C.ar    1  UNL1        0.0145
     10 C          59.6202   93.7961   -2.6970 C.ar    1  UNL1        0.0831
     11 C          56.6341   91.5024   -3.6542 C.3     1  UNL1        0.0431
     12 C          55.5788   91.0007   -4.5948 C.3     1  UNL1        0.0733
     13 N          55.2867   91.4473   -5.9966 N.3     1  UNL1       -0.2969
     14 C          55.9776   92.5058   -6.8042 C.3     1  UNL1        0.0733
     15 C          57.1314   93.3792   -6.4094 C.3     1  UNL1        0.0431
     16 H          54.3101   91.7407   -5.9730 H       1  UNL1        0.1233
     17 O          61.9566   92.8362   -0.7423 O.2     1  UNL1       -0.1476
     18 S          60.7689   93.6323   -0.2889 S.O2    1  UNL1        0.0860
     19 O          59.5812   94.4285    0.1644 O.2     1  UNL1       -0.1476
     20 C          60.9084   93.0560    1.0888 C.ar    1  UNL1        0.1285
     21 C          59.7956   93.2107    2.0827 C.ar    1  UNL1        0.0204
     22 C          59.9351   92.6343    3.4605 C.ar    1  UNL1        0.0023
     23 C          61.1873   91.9032    3.8445 C.ar    1  UNL1        0.0115
     24 C          62.3001   91.7484    2.8505 C.ar    1  UNL1        0.0590
     25 CL         63.5522   91.0173    3.2345 Cl      1  UNL1       -0.0822
     26 C          62.1606   92.3248    1.4728 C.ar    1  UNL1        0.0318
@<TRIPOS>BOND
     1    17    18    2
     2    18    19    2
     3    18    20    1
     4    20    21   ar
     5    21    22   ar
     6    22    23   ar
     7    23    24   ar
     8    24    25    1
     9    24    26   ar
    10    18     1    1
    11     1     2   ar
    12     2     3   ar
    13     3     4    1
    14     3     5   ar
    15     5     6   ar
    16     6     7   ar
    17     7     8   ar
    18     8     9   ar
    19     9    10   ar
    20     8    11    1
    21    11    12    1
    22    12    13    1
    23    13    14    1
    24    14    15    1
    25    26    20   ar
    26    10     1   ar
    27    10     5   ar
    28    15     7    1
    29    13    16    1
