@<TRIPOS>MOLECULE
*****
 32 35 0 0 0
SMALL
GASTEIGER

@<TRIPOS>ATOM
      1 C          65.3603   91.9771   12.7139 C.3     1  UNL1        0.1092
      2 C          65.6215   92.9103   11.5691 C.3     1  UNL1        0.1598
      3 O          64.7485   92.8649   10.3502 O.3     1  UNL1       -0.3507
      4 C          63.6142   91.8863   10.2761 C.3     1  UNL1        0.1634
      5 C          63.3529   90.9531   11.4210 C.3     1  UNL1        0.1455
      6 N          64.2260   90.9985   12.6399 N.3     1  UNL1       -0.1499
      7 C          67.1902   90.9017   14.2122 C.3     1  UNL1        0.0015
      8 C          66.2333   92.0225   13.9328 C.3     1  UNL1        0.0189
      9 C          66.1495   93.1888   14.8724 C.3     1  UNL1        0.0015
     10 C          62.2185   89.9743   11.3470 C.3     1  UNL1        0.1550
     11 C          60.8881   89.3357   11.6154 C.3     1  UNL1        0.0453
     12 C          61.2597   90.6137   12.3073 C.3     1  UNL1        0.0453
     13 O          62.7834   88.9951   10.3611 O.3     1  UNL1       -0.4403
     14 C          62.0641   87.7077   10.0868 C.2     1  UNL1        0.4048
     15 O          62.4713   86.4539   10.8025 O.2     1  UNL1       -0.2262
     16 N          60.9379   87.6740    9.0967 N.am    1  UNL1       -0.2435
     17 C          60.1300   86.4673    8.7209 C.3     1  UNL1        0.0994
     18 C          59.1145   86.8887    7.7005 C.3     1  UNL1        0.0526
     19 C          59.2947   88.3558    7.4457 C.3     1  UNL1        0.1321
     20 O          58.4894   89.1910    6.4949 O.3     1  UNL1       -0.3827
     21 C          60.4216   88.8412    8.3085 C.3     1  UNL1        0.1259
     22 H          58.8084   90.1068    6.5190 H       1  UNL1        0.2104
     23 S          63.9646   90.0652   13.7848 S.O2    1  UNL1        0.0635
     24 O          63.4756   91.2169   14.6120 O.2     1  UNL1       -0.1528
     25 O          64.3348   88.8562   13.3117 O.2     1  UNL1       -0.1528
     26 C          63.7033   89.1320   14.9297 C.ar    1  UNL1        0.1223
     27 C          63.1309   89.6597   16.2119 C.ar    1  UNL1        0.0208
     28 C          62.8696   88.7265   17.3567 C.ar    1  UNL1        0.0128
     29 C          63.1807   87.2655   17.2195 C.ar    1  UNL1        0.0578
     30 CL         62.9194   86.3323   18.3644 Cl      1  UNL1       -0.0822
     31 C          63.7531   86.7378   15.9374 C.ar    1  UNL1        0.0128
     32 C          64.0144   87.6710   14.7925 C.ar    1  UNL1        0.0208
@<TRIPOS>BOND
     1     7     8    1
     2     8     9    1
     3     1     8    1
     4     1     2    1
     5     2     3    1
     6     3     4    1
     7     4     5    1
     8     5    10    1
     9    10    13    1
    10    13    14    1
    11    14    15    2
    12    14    16   am
    13    16    17    1
    14    17    18    1
    15    18    19    1
    16    19    20    1
    17    19    21    1
    18    10    11    1
    19    11    12    1
    20     5     6    1
    21     6    23    1
    22    23    24    2
    23    23    25    2
    24    23    26    1
    25    26    27   ar
    26    27    28   ar
    27    28    29   ar
    28    29    30    1
    29    29    31   ar
    30    31    32   ar
    31     6     1    1
    32    32    26   ar
    33    12    10    1
    34    21    16    1
    35    20    22    1
@<TRIPOS>MOLECULE
*****
 32 35 0 0 0
SMALL
GASTEIGER

@<TRIPOS>ATOM
      1 C          65.3626   91.8860   12.8516 C.3     1  UNL1        0.1092
      2 C          65.6368   92.7884   11.6853 C.3     1  UNL1        0.1598
      3 O          64.7756   92.7127   10.4595 O.3     1  UNL1       -0.3507
      4 C          63.6400   91.7345   10.4000 C.3     1  UNL1        0.1634
      5 C          63.3658   90.8320   11.5663 C.3     1  UNL1        0.1455
      6 N          64.2270   90.9077   12.7921 N.3     1  UNL1       -0.1499
      7 C          65.8928   92.9374   15.1674 C.3     1  UNL1        0.0015
      8 C          66.2238   91.9617   14.0773 C.3     1  UNL1        0.0189
      9 C          67.4162   91.0618   14.2130 C.3     1  UNL1        0.0015
     10 C          62.2302   89.8537   11.5069 C.3     1  UNL1        0.1550
     11 C          60.8293   89.3233   11.4280 C.3     1  UNL1        0.0453
     12 C          61.0718   90.8036   11.4302 C.3     1  UNL1        0.0453
     13 O          62.9942   88.5641   11.5629 O.3     1  UNL1       -0.4403
     14 C          62.5279   87.3809   10.7676 C.2     1  UNL1        0.4048
     15 O          61.9413   87.5797    9.4014 O.2     1  UNL1       -0.2262
     16 N          62.6482   85.9990   11.3383 N.am    1  UNL1       -0.2435
     17 C          62.2271   84.7269   10.6642 C.3     1  UNL1        0.0994
     18 C          62.5294   83.5882   11.5926 C.3     1  UNL1        0.0526
     19 C          63.1373   84.1566   12.8406 C.3     1  UNL1        0.1321
     20 O          63.5919   83.3726   14.0359 O.3     1  UNL1       -0.3827
     21 C          63.2107   85.6465   12.6834 C.3     1  UNL1        0.1259
     22 H          63.9467   83.9792   14.7046 H       1  UNL1        0.2104
     23 S          63.9527   90.0052   13.9584 S.O2    1  UNL1        0.0635
     24 O          63.1300   91.0834   14.5992 O.2     1  UNL1       -0.1528
     25 O          64.6114   88.8671   13.6527 O.2     1  UNL1       -0.1528
     26 C          63.6784   89.1027   15.1247 C.ar    1  UNL1        0.1223
     27 C          63.0795   89.6620   16.3812 C.ar    1  UNL1        0.0208
     28 C          62.8052   88.7595   17.5475 C.ar    1  UNL1        0.0128
     29 C          63.1296   87.2978   17.4573 C.ar    1  UNL1        0.0578
     30 CL         62.8553   86.3953   18.6236 Cl      1  UNL1       -0.0822
     31 C          63.7284   86.7385   16.2009 C.ar    1  UNL1        0.0128
     32 C          64.0028   87.6410   15.0345 C.ar    1  UNL1        0.0208
@<TRIPOS>BOND
     1     7     8    1
     2     8     9    1
     3     1     8    1
     4     1     2    1
     5     2     3    1
     6     3     4    1
     7     4     5    1
     8     5    10    1
     9    10    13    1
    10    13    14    1
    11    14    15    2
    12    14    16   am
    13    16    17    1
    14    17    18    1
    15    18    19    1
    16    19    20    1
    17    19    21    1
    18    10    11    1
    19    11    12    1
    20     5     6    1
    21     6    23    1
    22    23    24    2
    23    23    25    2
    24    23    26    1
    25    26    27   ar
    26    27    28   ar
    27    28    29   ar
    28    29    30    1
    29    29    31   ar
    30    31    32   ar
    31     6     1    1
    32    32    26   ar
    33    12    10    1
    34    21    16    1
    35    20    22    1
@<TRIPOS>MOLECULE
*****
 32 35 0 0 0
SMALL
GASTEIGER

@<TRIPOS>ATOM
      1 C          63.3698   85.7691   12.6050 C.3     1  UNL1        0.1092
      2 C          64.2361   85.4578   13.7893 C.3     1  UNL1        0.1598
      3 O          64.7262   86.5670   14.6722 O.3     1  UNL1       -0.3507
      4 C          64.3500   87.9874   14.3709 C.3     1  UNL1        0.1634
      5 C          63.4837   88.2987   13.1866 C.3     1  UNL1        0.1455
      6 N          62.9936   87.1895   12.3036 N.3     1  UNL1       -0.1499
      7 C          63.1811   84.6822   10.2528 C.3     1  UNL1        0.0015
      8 C          62.8798   84.6600   11.7220 C.3     1  UNL1        0.0189
      9 C          62.0884   83.5286   12.3082 C.3     1  UNL1        0.0015
     10 C          63.1075   89.7191   12.8852 C.3     1  UNL1        0.1550
     11 C          62.2665   90.9508   12.7243 C.3     1  UNL1        0.0453
     12 C          61.6386   89.6688   13.1852 C.3     1  UNL1        0.0453
     13 O          64.4457   90.2627   12.4806 O.3     1  UNL1       -0.4403
     14 C          64.9826   91.4996   13.1377 C.2     1  UNL1        0.4048
     15 O          65.0014   91.6061   14.6338 O.2     1  UNL1       -0.2262
     16 N          65.5005   92.6300   12.2988 N.am    1  UNL1       -0.2435
     17 C          66.0646   93.9220   12.8115 C.3     1  UNL1        0.0994
     18 C          66.4581   94.7574   11.6294 C.3     1  UNL1        0.0526
     19 C          66.1372   93.9818   10.3862 C.3     1  UNL1        0.1321
     20 O          66.3677   94.4405    8.9768 O.3     1  UNL1       -0.3827
     21 C          65.5454   92.6670   10.7999 C.3     1  UNL1        0.1259
     22 H          66.0734   93.7517    8.3604 H       1  UNL1        0.2104
     23 S          62.1273   87.5009   11.1192 S.O2    1  UNL1        0.0635
     24 O          60.9620   86.8457   11.7995 O.2     1  UNL1       -0.1528
     25 O          62.9564   88.1408   10.2673 O.2     1  UNL1       -0.1528
     26 C          61.2610   87.8122    9.9350 C.ar    1  UNL1        0.1223
     27 C          60.9984   89.2385    9.5521 C.ar    1  UNL1        0.0208
     28 C          60.1321   89.5498    8.3678 C.ar    1  UNL1        0.0128
     29 C          59.5284   88.4348    7.5663 C.ar    1  UNL1        0.0578
     30 CL         58.6621   88.7461    6.3821 Cl      1  UNL1       -0.0822
     31 C          59.7910   87.0085    7.9492 C.ar    1  UNL1        0.0128
     32 C          60.6573   86.6971    9.1335 C.ar    1  UNL1        0.0208
@<TRIPOS>BOND
     1     7     8    1
     2     8     9    1
     3     1     8    1
     4     1     2    1
     5     2     3    1
     6     3     4    1
     7     4     5    1
     8     5    10    1
     9    10    13    1
    10    13    14    1
    11    14    15    2
    12    14    16   am
    13    16    17    1
    14    17    18    1
    15    18    19    1
    16    19    20    1
    17    19    21    1
    18    10    11    1
    19    11    12    1
    20     5     6    1
    21     6    23    1
    22    23    24    2
    23    23    25    2
    24    23    26    1
    25    26    27   ar
    26    27    28   ar
    27    28    29   ar
    28    29    30    1
    29    29    31   ar
    30    31    32   ar
    31     6     1    1
    32    32    26   ar
    33    12    10    1
    34    21    16    1
    35    20    22    1
@<TRIPOS>MOLECULE
*****
 32 35 0 0 0
SMALL
GASTEIGER

@<TRIPOS>ATOM
      1 C          63.4012   95.5949    0.4680 C.3     1  UNL1        0.1092
      2 C          62.7754   96.1238    1.7244 C.3     1  UNL1        0.1598
      3 O          61.3055   96.4204    1.7628 O.3     1  UNL1       -0.3507
      4 C          60.4614   96.1881    0.5449 C.3     1  UNL1        0.1634
      5 C          61.0872   95.6592   -0.7115 C.3     1  UNL1        0.1455
      6 N          62.5571   95.3626   -0.7499 N.3     1  UNL1       -0.1499
      7 C          65.3733   93.9426    0.8292 C.3     1  UNL1        0.0015
      8 C          64.8711   95.2983    0.4296 C.3     1  UNL1        0.0189
      9 C          65.8387   96.3575   -0.0084 C.3     1  UNL1        0.0015
     10 C          60.2431   95.4269   -1.9296 C.3     1  UNL1        0.1550
     11 C          59.4654   95.7101   -3.1806 C.3     1  UNL1        0.0453
     12 C          60.1411   96.8309   -2.4475 C.3     1  UNL1        0.0453
     13 O          60.0521   93.9421   -1.8346 O.3     1  UNL1       -0.4403
     14 C          58.7524   93.3837   -1.3354 C.2     1  UNL1        0.4048
     15 O          58.3540   93.5775    0.0977 O.2     1  UNL1       -0.2262
     16 N          57.8513   92.6314   -2.2692 N.am    1  UNL1       -0.2435
     17 C          56.5285   92.0189   -1.9156 C.3     1  UNL1        0.0994
     18 C          55.9745   91.3685   -3.1484 C.3     1  UNL1        0.0526
     19 C          56.9548   91.5790   -4.2640 C.3     1  UNL1        0.1321
     20 O          56.8021   91.0941   -5.6753 O.3     1  UNL1       -0.3827
     21 C          58.1148   92.3595   -3.7206 C.3     1  UNL1        0.1259
     22 H          57.5756   91.3630   -6.1951 H       1  UNL1        0.2104
     23 S          63.1829   94.8337   -2.0064 S.O2    1  UNL1        0.0635
     24 O          63.4119   96.2373   -2.4832 O.2     1  UNL1       -0.1528
     25 O          63.1191   93.4928   -1.8637 O.2     1  UNL1       -0.1528
     26 C          63.8087   94.3048   -3.2629 C.ar    1  UNL1        0.1223
     27 C          64.4879   95.2438   -4.2153 C.ar    1  UNL1        0.0208
     28 C          65.1136   94.7150   -5.4717 C.ar    1  UNL1        0.0128
     29 C          65.0602   93.2471   -5.7758 C.ar    1  UNL1        0.0578
     30 CL         65.6860   92.7182   -7.0323 Cl      1  UNL1       -0.0822
     31 C          64.3811   92.3081   -4.8235 C.ar    1  UNL1        0.0128
     32 C          63.7553   92.8369   -3.5670 C.ar    1  UNL1        0.0208
@<TRIPOS>BOND
     1     7     8    1
     2     8     9    1
     3     1     8    1
     4     1     2    1
     5     2     3    1
     6     3     4    1
     7     4     5    1
     8     5    10    1
     9    10    13    1
    10    13    14    1
    11    14    15    2
    12    14    16   am
    13    16    17    1
    14    17    18    1
    15    18    19    1
    16    19    20    1
    17    19    21    1
    18    10    11    1
    19    11    12    1
    20     5     6    1
    21     6    23    1
    22    23    24    2
    23    23    25    2
    24    23    26    1
    25    26    27   ar
    26    27    28   ar
    27    28    29   ar
    28    29    30    1
    29    29    31   ar
    30    31    32   ar
    31     6     1    1
    32    32    26   ar
    33    12    10    1
    34    21    16    1
    35    20    22    1
@<TRIPOS>MOLECULE
*****
 32 35 0 0 0
SMALL
GASTEIGER

@<TRIPOS>ATOM
      1 C          62.2012   87.7529   10.0503 C.3     1  UNL1        0.1092
      2 C          62.2579   89.1477    9.5013 C.3     1  UNL1        0.1598
      3 O          62.7346   90.2758   10.3674 O.3     1  UNL1       -0.3507
      4 C          63.1544   90.0092   11.7825 C.3     1  UNL1        0.1634
      5 C          63.0976   88.6145   12.3315 C.3     1  UNL1        0.1455
      6 N          62.6210   87.4863   11.4654 N.3     1  UNL1       -0.1499
      7 C          62.7170   85.7022    8.5409 C.3     1  UNL1        0.0015
      8 C          61.7246   86.6248    9.1842 C.3     1  UNL1        0.0189
      9 C          60.2555   86.4193    8.9613 C.3     1  UNL1        0.0015
     10 C          63.5174   88.3478   13.7467 C.3     1  UNL1        0.1550
     11 C          64.1881   87.6948   14.9188 C.3     1  UNL1        0.0453
     12 C          64.3857   87.1425   13.5382 C.3     1  UNL1        0.0453
     13 O          62.7949   89.4605   14.4467 O.3     1  UNL1       -0.4403
     14 C          63.5068   90.2850   15.4779 C.2     1  UNL1        0.4048
     15 O          63.0971   90.2014   16.9185 O.2     1  UNL1       -0.2262
     16 N          64.6284   91.1930   15.0687 N.am    1  UNL1       -0.2435
     17 C          65.4288   92.0728   15.9826 C.3     1  UNL1        0.0994
     18 C          66.4416   92.8042   15.1524 C.3     1  UNL1        0.0526
     19 C          66.2672   92.3764   13.7253 C.3     1  UNL1        0.1321
     20 O          67.0720   92.8596   12.5553 O.3     1  UNL1       -0.3827
     21 C          65.1466   91.3806   13.6736 C.3     1  UNL1        0.1259
     22 H          66.7575   92.4273   11.7459 H       1  UNL1        0.2104
     23 S          62.5642   86.0915   12.0145 S.O2    1  UNL1        0.0635
     24 O          61.1673   86.3400   12.5012 O.2     1  UNL1       -0.1528
     25 O          63.7717   85.5708   11.7090 O.2     1  UNL1       -0.1528
     26 C          62.5074   84.6968   12.5635 C.ar    1  UNL1        0.1223
     27 C          62.6051   83.5214   11.6368 C.ar    1  UNL1        0.0208
     28 C          62.5483   82.1267   12.1858 C.ar    1  UNL1        0.0128
     29 C          62.3938   81.9073   13.6616 C.ar    1  UNL1        0.0578
     30 CL         62.3369   80.5126   14.2107 Cl      1  UNL1       -0.0822
     31 C          62.2960   83.0827   14.5884 C.ar    1  UNL1        0.0128
     32 C          62.3528   84.4775   14.0393 C.ar    1  UNL1        0.0208
@<TRIPOS>BOND
     1     7     8    1
     2     8     9    1
     3     1     8    1
     4     1     2    1
     5     2     3    1
     6     3     4    1
     7     4     5    1
     8     5    10    1
     9    10    13    1
    10    13    14    1
    11    14    15    2
    12    14    16   am
    13    16    17    1
    14    17    18    1
    15    18    19    1
    16    19    20    1
    17    19    21    1
    18    10    11    1
    19    11    12    1
    20     5     6    1
    21     6    23    1
    22    23    24    2
    23    23    25    2
    24    23    26    1
    25    26    27   ar
    26    27    28   ar
    27    28    29   ar
    28    29    30    1
    29    29    31   ar
    30    31    32   ar
    31     6     1    1
    32    32    26   ar
    33    12    10    1
    34    21    16    1
    35    20    22    1
@<TRIPOS>MOLECULE
*****
 32 35 0 0 0
SMALL
GASTEIGER

@<TRIPOS>ATOM
      1 C          57.1546   94.3907   -3.6664 C.3     1  UNL1        0.1092
      2 C          55.7953   94.6150   -3.0732 C.3     1  UNL1        0.1598
      3 O          55.6643   95.0883   -1.6559 O.3     1  UNL1       -0.3507
      4 C          56.8926   95.3373   -0.8317 C.3     1  UNL1        0.1634
      5 C          58.2519   95.1130   -1.4249 C.3     1  UNL1        0.1455
      6 N          58.3829   94.6397   -2.8422 N.3     1  UNL1       -0.1499
      7 C          57.3036   92.4481   -5.3851 C.3     1  UNL1        0.0015
      8 C          57.2857   93.9173   -5.0837 C.3     1  UNL1        0.0189
      9 C          57.3988   94.9133   -6.1996 C.3     1  UNL1        0.0015
     10 C          59.4803   95.3621   -0.6008 C.3     1  UNL1        0.1550
     11 C          60.5381   96.0998    0.1652 C.3     1  UNL1        0.0453
     12 C          59.4157   96.8560   -0.4818 C.3     1  UNL1        0.0453
     13 O          59.9714   93.9546   -0.4336 O.3     1  UNL1       -0.4403
     14 C          60.3003   93.4326    0.9337 C.2     1  UNL1        0.4048
     15 O          59.2096   93.2392    1.9451 O.2     1  UNL1       -0.2262
     16 N          61.7199   93.1039    1.2895 N.am    1  UNL1       -0.2435
     17 C          62.1986   92.5765    2.6097 C.3     1  UNL1        0.0994
     18 C          63.6846   92.3916    2.5237 C.3     1  UNL1        0.0526
     19 C          64.1244   92.8046    1.1504 C.3     1  UNL1        0.1321
     20 O          65.5315   92.7815    0.6310 O.3     1  UNL1       -0.3827
     21 C          62.9102   93.2449    0.3876 C.3     1  UNL1        0.1259
     22 H          65.5430   93.0981   -0.2858 H       1  UNL1        0.2104
     23 S          59.7423   94.4154   -3.4354 S.O2    1  UNL1        0.0635
     24 O          59.8000   95.8564   -3.8480 O.2     1  UNL1       -0.1528
     25 O          59.9879   93.1082   -3.2043 O.2     1  UNL1       -0.1528
     26 C          61.1017   94.1912   -4.0286 C.ar    1  UNL1        0.1223
     27 C          62.1697   93.5140   -3.2218 C.ar    1  UNL1        0.0208
     28 C          63.5290   93.2897   -3.8150 C.ar    1  UNL1        0.0128
     29 C          63.8204   93.7427   -5.2149 C.ar    1  UNL1        0.0578
     30 CL         65.1797   93.5185   -5.8081 Cl      1  UNL1       -0.0822
     31 C          62.7525   94.4199   -6.0217 C.ar    1  UNL1        0.0128
     32 C          61.3931   94.6441   -5.4286 C.ar    1  UNL1        0.0208
@<TRIPOS>BOND
     1     7     8    1
     2     8     9    1
     3     1     8    1
     4     1     2    1
     5     2     3    1
     6     3     4    1
     7     4     5    1
     8     5    10    1
     9    10    13    1
    10    13    14    1
    11    14    15    2
    12    14    16   am
    13    16    17    1
    14    17    18    1
    15    18    19    1
    16    19    20    1
    17    19    21    1
    18    10    11    1
    19    11    12    1
    20     5     6    1
    21     6    23    1
    22    23    24    2
    23    23    25    2
    24    23    26    1
    25    26    27   ar
    26    27    28   ar
    27    28    29   ar
    28    29    30    1
    29    29    31   ar
    30    31    32   ar
    31     6     1    1
    32    32    26   ar
    33    12    10    1
    34    21    16    1
    35    20    22    1
@<TRIPOS>MOLECULE
*****
 32 35 0 0 0
SMALL
GASTEIGER

@<TRIPOS>ATOM
      1 C          62.3359   93.7407    1.3769 C.3     1  UNL1        0.1092
      2 C          61.5845   93.2015    2.5577 C.3     1  UNL1        0.1598
      3 O          60.0906   93.0775    2.5032 O.3     1  UNL1       -0.3507
      4 C          59.3482   93.4929    1.2678 C.3     1  UNL1        0.1634
      5 C          60.0996   94.0321    0.0869 C.3     1  UNL1        0.1455
      6 N          61.5935   94.1561    0.1415 N.3     1  UNL1       -0.1499
      7 C          64.4595   95.1247    1.9468 C.3     1  UNL1        0.0015
      8 C          63.8298   93.8647    1.4314 C.3     1  UNL1        0.0189
      9 C          64.6940   92.7286    0.9705 C.3     1  UNL1        0.0015
     10 C          59.3572   94.4475   -1.1485 C.3     1  UNL1        0.1550
     11 C          58.6597   95.3241   -2.1461 C.3     1  UNL1        0.0453
     12 C          59.2286   95.9199   -0.8925 C.3     1  UNL1        0.0453
     13 O          59.2280   93.1193   -1.8335 O.3     1  UNL1       -0.4403
     14 C          57.8727   92.5100   -2.0387 C.2     1  UNL1        0.4048
     15 O          57.0314   92.1361   -0.8544 O.2     1  UNL1       -0.2262
     16 N          57.3587   92.2747   -3.4280 N.am    1  UNL1       -0.2435
     17 C          56.0306   91.6770   -3.7874 C.3     1  UNL1        0.0994
     18 C          55.9337   91.6286   -5.2835 C.3     1  UNL1        0.0526
     19 C          57.2018   92.1963   -5.8488 C.3     1  UNL1        0.1321
     20 O          57.5314   92.3395   -7.3051 O.3     1  UNL1       -0.3827
     21 C          58.0825   92.5955   -4.7021 C.3     1  UNL1        0.1259
     22 H          58.4121   92.7347   -7.3999 H       1  UNL1        0.2104
     23 S          62.3449   94.6954   -1.0395 S.O2    1  UNL1        0.0635
     24 O          62.4234   93.3146   -1.6201 O.2     1  UNL1       -0.1528
     25 O          62.4400   96.0187   -0.7896 O.2     1  UNL1       -0.1528
     26 C          63.0963   95.2346   -2.2204 C.ar    1  UNL1        0.1223
     27 C          62.3922   95.4348   -3.5297 C.ar    1  UNL1        0.0208
     28 C          63.1436   95.9741   -4.7106 C.ar    1  UNL1        0.0128
     29 C          64.5991   96.3131   -4.5823 C.ar    1  UNL1        0.0578
     30 CL         65.3505   96.8524   -5.7632 Cl      1  UNL1       -0.0822
     31 C          65.3033   96.1129   -3.2731 C.ar    1  UNL1        0.0128
     32 C          64.5519   95.5737   -2.0921 C.ar    1  UNL1        0.0208
@<TRIPOS>BOND
     1     7     8    1
     2     8     9    1
     3     1     8    1
     4     1     2    1
     5     2     3    1
     6     3     4    1
     7     4     5    1
     8     5    10    1
     9    10    13    1
    10    13    14    1
    11    14    15    2
    12    14    16   am
    13    16    17    1
    14    17    18    1
    15    18    19    1
    16    19    20    1
    17    19    21    1
    18    10    11    1
    19    11    12    1
    20     5     6    1
    21     6    23    1
    22    23    24    2
    23    23    25    2
    24    23    26    1
    25    26    27   ar
    26    27    28   ar
    27    28    29   ar
    28    29    30    1
    29    29    31   ar
    30    31    32   ar
    31     6     1    1
    32    32    26   ar
    33    12    10    1
    34    21    16    1
    35    20    22    1
@<TRIPOS>MOLECULE
*****
 32 35 0 0 0
SMALL
GASTEIGER

@<TRIPOS>ATOM
      1 C          60.8985   87.1280    8.1473 C.3     1  UNL1        0.1092
      2 C          60.1695   87.9153    7.0991 C.3     1  UNL1        0.1598
      3 O          59.5448   89.2331    7.4501 O.3     1  UNL1       -0.3507
      4 C          59.6491   89.7636    8.8492 C.3     1  UNL1        0.1634
      5 C          60.3781   88.9763    9.8974 C.3     1  UNL1        0.1455
      6 N          61.0028   87.6585    9.5464 N.3     1  UNL1       -0.1499
      7 C          60.7265   84.7753    7.0587 C.3     1  UNL1        0.0015
      8 C          61.5232   85.8102    7.7963 C.3     1  UNL1        0.0189
      9 C          62.9446   85.5273    8.1829 C.3     1  UNL1        0.0015
     10 C          60.4825   89.5068   11.2966 C.3     1  UNL1        0.1550
     11 C          60.1799   89.7169   12.7507 C.3     1  UNL1        0.0453
     12 C          59.3467   88.7683   11.9406 C.3     1  UNL1        0.0453
     13 O          61.6545   90.4295   11.1385 O.3     1  UNL1       -0.4403
     14 C          62.6745   90.5406   12.2327 C.2     1  UNL1        0.4048
     15 O          62.4462   89.8487   13.5439 O.2     1  UNL1       -0.2262
     16 N          63.9228   91.3435   12.0157 N.am    1  UNL1       -0.2435
     17 C          65.0263   91.5442   13.0117 C.3     1  UNL1        0.0994
     18 C          66.0723   92.4114   12.3762 C.3     1  UNL1        0.0526
     19 C          65.6152   92.7467   10.9875 C.3     1  UNL1        0.1321
     20 O          66.3565   93.5934    9.9956 O.3     1  UNL1       -0.3827
     21 C          64.2868   92.0867   10.7647 C.3     1  UNL1        0.1259
     22 H          65.8434   93.6535    9.1746 H       1  UNL1        0.2104
     23 S          61.7319   86.8712   10.5946 S.O2    1  UNL1        0.0635
     24 O          62.9079   87.7939   10.4697 O.2     1  UNL1       -0.1528
     25 O          60.8637   85.8941   10.9320 O.2     1  UNL1       -0.1528
     26 C          62.4609   86.0840   11.6428 C.ar    1  UNL1        0.1223
     27 C          63.2260   86.7961   12.7188 C.ar    1  UNL1        0.0208
     28 C          63.9550   86.0089   13.7670 C.ar    1  UNL1        0.0128
     29 C          63.9191   84.5096   13.7393 C.ar    1  UNL1        0.0578
     30 CL         64.6482   83.7224   14.7874 Cl      1  UNL1       -0.0822
     31 C          63.1541   83.7975   12.6633 C.ar    1  UNL1        0.0128
     32 C          62.4250   84.5847   11.6151 C.ar    1  UNL1        0.0208
@<TRIPOS>BOND
     1     7     8    1
     2     8     9    1
     3     1     8    1
     4     1     2    1
     5     2     3    1
     6     3     4    1
     7     4     5    1
     8     5    10    1
     9    10    13    1
    10    13    14    1
    11    14    15    2
    12    14    16   am
    13    16    17    1
    14    17    18    1
    15    18    19    1
    16    19    20    1
    17    19    21    1
    18    10    11    1
    19    11    12    1
    20     5     6    1
    21     6    23    1
    22    23    24    2
    23    23    25    2
    24    23    26    1
    25    26    27   ar
    26    27    28   ar
    27    28    29   ar
    28    29    30    1
    29    29    31   ar
    30    31    32   ar
    31     6     1    1
    32    32    26   ar
    33    12    10    1
    34    21    16    1
    35    20    22    1
@<TRIPOS>MOLECULE
*****
 32 35 0 0 0
SMALL
GASTEIGER

@<TRIPOS>ATOM
      1 C          61.9624   94.0679    1.1337 C.3     1  UNL1        0.1092
      2 C          60.9149   93.6230    2.1106 C.3     1  UNL1        0.1598
      3 O          59.4618   93.7383    1.7566 O.3     1  UNL1       -0.3507
      4 C          59.0563   94.2985    0.4255 C.3     1  UNL1        0.1634
      5 C          60.1039   94.7434   -0.5514 C.3     1  UNL1        0.1455
      6 N          61.5570   94.6281   -0.1974 N.3     1  UNL1       -0.1499
      7 C          64.1949   95.1773    1.8654 C.3     1  UNL1        0.0015
      8 C          63.4155   93.9526    1.4877 C.3     1  UNL1        0.0189
      9 C          64.0892   92.6127    1.4641 C.3     1  UNL1        0.0015
     10 C          59.6985   95.3036   -1.8826 C.3     1  UNL1        0.1550
     11 C          59.1749   96.2672   -2.9060 C.3     1  UNL1        0.0453
     12 C          59.2172   96.6597   -1.4588 C.3     1  UNL1        0.0453
     13 O          60.0390   94.1421   -2.7685 O.3     1  UNL1       -0.4403
     14 C          59.3218   93.9585   -4.0732 C.2     1  UNL1        0.4048
     15 O          59.7595   94.7278   -5.2843 O.2     1  UNL1       -0.2262
     16 N          58.1671   93.0058   -4.1667 N.am    1  UNL1       -0.2435
     17 C          57.3578   92.7193   -5.3968 C.3     1  UNL1        0.0994
     18 C          56.3094   91.7086   -5.0369 C.3     1  UNL1        0.0526
     19 C          56.4708   91.3705   -3.5845 C.3     1  UNL1        0.1321
     20 O          55.6314   90.4009   -2.8064 O.3     1  UNL1       -0.3827
     21 C          57.6189   92.1722   -3.0466 C.3     1  UNL1        0.1259
     22 H          55.9439   90.3666   -1.8887 H       1  UNL1        0.2104
     23 S          62.6046   95.0731   -1.1745 S.O2    1  UNL1        0.0635
     24 O          62.7631   93.6588   -1.6485 O.2     1  UNL1       -0.1528
     25 O          62.6943   96.4050   -0.9732 O.2     1  UNL1       -0.1528
     26 C          63.6522   95.5179   -2.1515 C.ar    1  UNL1        0.1223
     27 C          64.8134   96.3434   -1.6821 C.ar    1  UNL1        0.0208
     28 C          65.8609   96.7883   -2.6591 C.ar    1  UNL1        0.0128
     29 C          65.7474   96.4078   -4.1056 C.ar    1  UNL1        0.0578
     30 CL         66.7949   96.8526   -5.0826 Cl      1  UNL1       -0.0822
     31 C          64.5863   95.5823   -4.5750 C.ar    1  UNL1        0.0128
     32 C          63.5386   95.1374   -3.5980 C.ar    1  UNL1        0.0208
@<TRIPOS>BOND
     1     7     8    1
     2     8     9    1
     3     1     8    1
     4     1     2    1
     5     2     3    1
     6     3     4    1
     7     4     5    1
     8     5    10    1
     9    10    13    1
    10    13    14    1
    11    14    15    2
    12    14    16   am
    13    16    17    1
    14    17    18    1
    15    18    19    1
    16    19    20    1
    17    19    21    1
    18    10    11    1
    19    11    12    1
    20     5     6    1
    21     6    23    1
    22    23    24    2
    23    23    25    2
    24    23    26    1
    25    26    27   ar
    26    27    28   ar
    27    28    29   ar
    28    29    30    1
    29    29    31   ar
    30    31    32   ar
    31     6     1    1
    32    32    26   ar
    33    12    10    1
    34    21    16    1
    35    20    22    1
