@<TRIPOS>MOLECULE
*****
 43 49 0 0 0
SMALL
GASTEIGER

@<TRIPOS>ATOM
      1 N          64.6508   89.8607   14.1390 N.am    1  UNL1       -0.2222
      2 C          64.3730   88.4661   14.6169 C.2     1  UNL1        0.3219
      3 O          64.7374   87.9051   15.9594 O.2     1  UNL1       -0.2512
      4 N          63.6667   87.7312   13.5164 N.am    1  UNL1       -0.1907
      5 C          63.5080   88.6714   12.3585 C.2     1  UNL1        0.2529
      6 O          62.8557   88.3518   11.0461 O.2     1  UNL1       -0.2724
      7 C          64.1163   89.9875   12.7432 C.3     1  UNL1        0.1391
      8 C          64.7593   91.2377   13.2663 C.3     1  UNL1        0.0449
      9 C          64.8219   92.4650   12.4063 C.3     1  UNL1        0.0746
     10 N          64.2416   92.4422   11.0233 N.3     1  UNL1       -0.2676
     11 C          63.5986   91.1921   10.5003 C.3     1  UNL1        0.0746
     12 C          63.5360   89.9647   11.3602 C.3     1  UNL1        0.0449
     13 C          67.4780   92.3233   15.4397 C.ar    1  UNL1        0.2293
     14 C          66.7869   91.2451   14.6589 C.ar    1  UNL1        0.0924
     15 C          65.3419   90.9389   14.9199 C.ar    1  UNL1        0.1453
     16 N          64.5880   91.7110   15.9617 N.ar    1  UNL1       -0.2084
     17 C          65.2789   92.7892   16.7426 C.ar    1  UNL1        0.2027
     18 N          66.7241   93.0954   16.4816 N.ar    1  UNL1       -0.1892
     19 C          69.5563   93.8409   15.7967 C.3     1  UNL1        0.2542
     20 O          68.9230   92.6296   15.1788 O.3     1  UNL1       -0.4560
     21 C          63.2008   86.3063   13.5653 C.ar    1  UNL1        0.0622
     22 C          63.0814   85.6010   14.8837 C.ar    1  UNL1        0.0154
     23 C          62.6156   84.1760   14.9326 C.ar    1  UNL1        0.0010
     24 C          62.2691   83.4563   13.6630 C.ar    1  UNL1       -0.0035
     25 C          62.3885   84.1615   12.3444 C.ar    1  UNL1        0.0010
     26 C          62.8543   85.5865   12.2957 C.ar    1  UNL1        0.0154
     27 C          61.8032   82.0312   13.7119 C.2     1  UNL1       -0.0161
     28 C          62.7129   80.9288   13.2568 C.2     1  UNL1       -0.0038
     29 C          62.2470   79.5038   13.3057 C.2     1  UNL1        0.0025
     30 C          60.8715   79.1814   13.8097 C.2     1  UNL1        0.0366
     31 C          60.1416   77.8811   13.9726 C.2     1  UNL1        0.1233
     32 N          58.7807   78.1800   14.5283 N.2     1  UNL1       -0.1467
     33 N          58.6696   79.6649   14.7089 N.2     1  UNL1       -0.1520
     34 C          59.9618   80.2838   14.2647 C.2     1  UNL1        0.0864
     35 C          60.4277   81.7087   14.2158 C.3     1  UNL1        0.0739
     36 C          64.3043   93.6697   10.1633 C.3     1  UNL1        0.1183
     37 C          65.6323   94.2706    9.8096 C.ar    1  UNL1        0.0712
     38 N          66.8076   93.3812    9.5307 N.ar    1  UNL1       -0.2471
     39 C          68.1357   93.9822    9.1770 C.ar    1  UNL1        0.0985
     40 C          68.2885   95.4725    9.1022 C.ar    1  UNL1        0.0203
     41 C          67.1133   96.3619    9.3811 C.ar    1  UNL1       -0.0015
     42 C          65.7852   95.7610    9.7348 C.ar    1  UNL1       -0.0069
     43 C          64.6100   96.6504   10.0137 C.3     1  UNL1        0.0323
@<TRIPOS>BOND
     1    19    20    1
     2    20    13    1
     3    13    14   ar
     4    14    15   ar
     5    15     1    1
     6     1     2   am
     7     2     3    2
     8     2     4   am
     9     4    21    1
    10    21    22   ar
    11    22    23   ar
    12    23    24   ar
    13    24    27    1
    14    27    28    2
    15    28    29    1
    16    29    30    2
    17    30    31    1
    18    31    32    2
    19    32    33    1
    20    33    34    2
    21    34    35    1
    22    24    25   ar
    23    25    26   ar
    24     4     5   am
    25     5     6    2
    26     5     7    1
    27     7     8    1
    28     8     9    1
    29     9    10    1
    30    10    36    1
    31    36    37    1
    32    37    38   ar
    33    38    39   ar
    34    39    40   ar
    35    40    41   ar
    36    41    42   ar
    37    42    43    1
    38    10    11    1
    39    11    12    1
    40    15    16   ar
    41    16    17   ar
    42    17    18   ar
    43    18    13   ar
    44     7     1    1
    45    42    37   ar
    46    26    21   ar
    47    12     7    1
    48    35    27    1
    49    34    30    1
@<TRIPOS>MOLECULE
*****
 43 49 0 0 0
SMALL
GASTEIGER

@<TRIPOS>ATOM
      1 N          64.1939   89.7624   14.0533 N.am    1  UNL1       -0.2222
      2 C          64.0523   88.2930   14.3196 C.2     1  UNL1        0.3219
      3 O          64.2004   87.6201   15.6521 O.2     1  UNL1       -0.2512
      4 N          63.7365   87.6146   13.0196 N.am    1  UNL1       -0.1907
      5 C          63.6830   88.6646   11.9498 C.2     1  UNL1        0.2529
      6 O          63.3971   88.4288   10.4963 O.2     1  UNL1       -0.2724
      7 C          63.9657   89.9921   12.5886 C.3     1  UNL1        0.1391
      8 C          64.2623   91.2419   13.3633 C.3     1  UNL1        0.0449
      9 C          64.3086   92.5664   12.6608 C.3     1  UNL1        0.0746
     10 N          64.0584   92.6411   11.1837 N.3     1  UNL1       -0.2676
     11 C          63.7618   91.3914   10.4091 C.3     1  UNL1        0.0746
     12 C          63.7154   90.0669   11.1116 C.3     1  UNL1        0.0449
     13 C          66.1922   92.4822   16.1411 C.ar    1  UNL1        0.2293
     14 C          65.8776   91.4278   15.1218 C.ar    1  UNL1        0.0924
     15 C          64.5085   90.8169   15.0726 C.ar    1  UNL1        0.1453
     16 N          63.4540   91.2605   16.0428 N.ar    1  UNL1       -0.2084
     17 C          63.7686   92.3149   17.0621 C.ar    1  UNL1        0.2027
     18 N          65.1377   92.9259   17.1113 N.ar    1  UNL1       -0.1892
     19 C          68.5685   92.7626   15.1291 C.3     1  UNL1        0.2542
     20 O          67.5612   93.0932   16.1903 O.3     1  UNL1       -0.4560
     21 C          63.5135   86.1443   12.8237 C.ar    1  UNL1        0.0622
     22 C          62.6435   85.6606   11.7016 C.ar    1  UNL1        0.0154
     23 C          62.4205   84.1903   11.5057 C.ar    1  UNL1        0.0010
     24 C          63.0674   83.2036   12.4320 C.ar    1  UNL1       -0.0035
     25 C          63.9374   83.6873   13.5542 C.ar    1  UNL1        0.0010
     26 C          64.1604   85.1576   13.7500 C.ar    1  UNL1        0.0154
     27 C          62.8443   81.7333   12.2361 C.2     1  UNL1       -0.0161
     28 C          62.2878   80.9035   13.3550 C.2     1  UNL1       -0.0038
     29 C          62.0647   79.4332   13.1591 C.2     1  UNL1        0.0025
     30 C          62.3982   78.7927   11.8443 C.2     1  UNL1        0.0366
     31 C          62.2868   77.3771   11.3607 C.2     1  UNL1        0.1233
     32 N          62.7745   77.3320    9.9428 N.2     1  UNL1       -0.1467
     33 N          63.1873   78.7196    9.5503 N.2     1  UNL1       -0.1520
     34 C          62.9547   79.6224   10.7255 C.2     1  UNL1        0.0864
     35 C          63.1778   81.0927   10.9213 C.3     1  UNL1        0.0739
     36 C          64.1047   93.9657   10.4813 C.3     1  UNL1        0.1183
     37 C          65.4045   94.4823    9.9394 C.ar    1  UNL1        0.0712
     38 N          66.5713   93.5537    9.7771 N.ar    1  UNL1       -0.2471
     39 C          67.8712   94.0703    9.2352 C.ar    1  UNL1        0.0985
     40 C          68.0042   95.5153    8.8557 C.ar    1  UNL1        0.0203
     41 C          66.8373   96.4439    9.0180 C.ar    1  UNL1       -0.0015
     42 C          65.5375   95.9274    9.5598 C.ar    1  UNL1       -0.0069
     43 C          64.3707   96.8559    9.7222 C.3     1  UNL1        0.0323
@<TRIPOS>BOND
     1    19    20    1
     2    20    13    1
     3    13    14   ar
     4    14    15   ar
     5    15     1    1
     6     1     2   am
     7     2     3    2
     8     2     4   am
     9     4    21    1
    10    21    22   ar
    11    22    23   ar
    12    23    24   ar
    13    24    27    1
    14    27    28    2
    15    28    29    1
    16    29    30    2
    17    30    31    1
    18    31    32    2
    19    32    33    1
    20    33    34    2
    21    34    35    1
    22    24    25   ar
    23    25    26   ar
    24     4     5   am
    25     5     6    2
    26     5     7    1
    27     7     8    1
    28     8     9    1
    29     9    10    1
    30    10    36    1
    31    36    37    1
    32    37    38   ar
    33    38    39   ar
    34    39    40   ar
    35    40    41   ar
    36    41    42   ar
    37    42    43    1
    38    10    11    1
    39    11    12    1
    40    15    16   ar
    41    16    17   ar
    42    17    18   ar
    43    18    13   ar
    44     7     1    1
    45    42    37   ar
    46    26    21   ar
    47    12     7    1
    48    35    27    1
    49    34    30    1
@<TRIPOS>MOLECULE
*****
 43 49 0 0 0
SMALL
GASTEIGER

@<TRIPOS>ATOM
      1 N          60.2752   88.8841   10.3166 N.am    1  UNL1       -0.2222
      2 C          59.9274   89.9724    9.3446 C.2     1  UNL1        0.3219
      3 O          59.3888   91.3280    9.6944 O.2     1  UNL1       -0.2512
      4 N          60.2128   89.4671    7.9613 N.am    1  UNL1       -0.1907
      5 C          60.7370   88.0666    8.0785 C.2     1  UNL1        0.2529
      6 O          61.1500   87.1816    6.9400 O.2     1  UNL1       -0.2724
      7 C          60.7755   87.7062    9.5341 C.3     1  UNL1        0.1391
      8 C          60.7575   87.4896   11.0182 C.3     1  UNL1        0.0449
      9 C          61.2159   86.1811   11.5908 C.3     1  UNL1        0.0746
     10 N          61.6923   85.0893   10.6791 N.3     1  UNL1       -0.2676
     11 C          61.7102   85.3059    9.1950 C.3     1  UNL1        0.0746
     12 C          61.2519   86.6144    8.6225 C.3     1  UNL1        0.0449
     13 C          61.1910   89.4507   14.1363 C.ar    1  UNL1        0.2293
     14 C          61.3208   89.3745   12.6438 C.ar    1  UNL1        0.0924
     15 C          60.1454   88.9603   11.8090 C.ar    1  UNL1        0.1453
     16 N          58.8403   88.6224   12.4666 N.ar    1  UNL1       -0.2084
     17 C          58.7104   88.6986   13.9589 C.ar    1  UNL1        0.2027
     18 N          59.8858   89.1128   14.7938 N.ar    1  UNL1       -0.1892
     19 C          63.5729   90.4719   14.3188 C.3     1  UNL1        0.2542
     20 O          62.3663   89.8649   14.9712 O.3     1  UNL1       -0.4560
     21 C          60.0098   90.2286    6.6852 C.ar    1  UNL1        0.0622
     22 C          58.6240   90.5940    6.2422 C.ar    1  UNL1        0.0154
     23 C          58.4210   91.3556    4.9660 C.ar    1  UNL1        0.0010
     24 C          59.6036   91.7517    4.1326 C.ar    1  UNL1       -0.0035
     25 C          60.9894   91.3863    4.5756 C.ar    1  UNL1        0.0010
     26 C          61.1924   90.6248    5.8519 C.ar    1  UNL1        0.0154
     27 C          59.4005   92.5133    2.8564 C.2     1  UNL1       -0.0161
     28 C          60.2249   93.7338    2.5720 C.2     1  UNL1       -0.0038
     29 C          60.0218   94.4953    1.2957 C.2     1  UNL1        0.0025
     30 C          58.9943   94.0363    0.3039 C.2     1  UNL1        0.0366
     31 C          58.5735   94.5797   -1.0293 C.2     1  UNL1        0.1233
     32 N          57.4889   93.6950   -1.5690 N.2     1  UNL1       -0.1467
     33 N          57.2395   92.6050   -0.5692 N.2     1  UNL1       -0.1520
     34 C          58.1700   92.8159    0.5883 C.2     1  UNL1        0.0864
     35 C          58.3730   92.0544    1.8645 C.3     1  UNL1        0.0739
     36 C          62.1506   83.7808   11.2518 C.3     1  UNL1        0.1183
     37 C          62.8628   83.7480   12.5715 C.ar    1  UNL1        0.0712
     38 N          63.7034   84.9144   12.9993 N.ar    1  UNL1       -0.2471
     39 C          64.4156   84.8815   14.3191 C.ar    1  UNL1        0.0985
     40 C          64.2871   83.6824   15.2110 C.ar    1  UNL1        0.0203
     41 C          63.4464   82.5161   14.7832 C.ar    1  UNL1       -0.0015
     42 C          62.7343   82.5489   13.4635 C.ar    1  UNL1       -0.0069
     43 C          61.8937   81.3826   13.0357 C.3     1  UNL1        0.0323
@<TRIPOS>BOND
     1    19    20    1
     2    20    13    1
     3    13    14   ar
     4    14    15   ar
     5    15     1    1
     6     1     2   am
     7     2     3    2
     8     2     4   am
     9     4    21    1
    10    21    22   ar
    11    22    23   ar
    12    23    24   ar
    13    24    27    1
    14    27    28    2
    15    28    29    1
    16    29    30    2
    17    30    31    1
    18    31    32    2
    19    32    33    1
    20    33    34    2
    21    34    35    1
    22    24    25   ar
    23    25    26   ar
    24     4     5   am
    25     5     6    2
    26     5     7    1
    27     7     8    1
    28     8     9    1
    29     9    10    1
    30    10    36    1
    31    36    37    1
    32    37    38   ar
    33    38    39   ar
    34    39    40   ar
    35    40    41   ar
    36    41    42   ar
    37    42    43    1
    38    10    11    1
    39    11    12    1
    40    15    16   ar
    41    16    17   ar
    42    17    18   ar
    43    18    13   ar
    44     7     1    1
    45    42    37   ar
    46    26    21   ar
    47    12     7    1
    48    35    27    1
    49    34    30    1
