@<TRIPOS>MOLECULE
*****
 43 49 0 0 0
SMALL
GASTEIGER

@<TRIPOS>ATOM
      1 C          61.8081   89.2925   10.1805 C.ar    1  UNL1        0.0508
      2 C          61.8797   90.7436   10.5535 C.ar    1  UNL1        0.0147
      3 C          62.4970   91.1533   11.8577 C.ar    1  UNL1        0.0019
      4 C          63.0428   90.1118   12.7890 C.ar    1  UNL1        0.0090
      5 C          62.9713   88.6606   12.4160 C.ar    1  UNL1        0.0307
      6 S          63.4225   87.4185   13.1256 S.2     1  UNL1       -0.0869
      7 C          63.0840   86.2412   12.2599 C.ar    1  UNL1        0.0295
      8 C          63.2918   84.7671   12.4442 C.ar    1  UNL1        0.0065
      9 C          62.8392   83.8076   11.3838 C.ar    1  UNL1        0.0005
     10 C          62.1788   84.3222   10.1391 C.ar    1  UNL1        0.0000
     11 C          61.9710   85.7962    9.9549 C.ar    1  UNL1        0.0006
     12 C          62.4236   86.7557   11.0153 C.ar    1  UNL1        0.0077
     13 C          62.3540   88.2510   11.1118 C.ar    1  UNL1        0.0200
     14 C          63.6602   90.5214   14.0933 C.ar    1  UNL1        0.0352
     15 C          63.1597   89.9309   15.3782 C.ar    1  UNL1        0.0031
     16 C          63.7769   90.3405   16.6824 C.ar    1  UNL1        0.0003
     17 C          64.8948   91.3406   16.7019 C.ar    1  UNL1        0.0062
     18 C          65.3952   91.9310   15.4170 C.ar    1  UNL1        0.0736
     19 C          66.5130   92.9311   15.4364 C.ar    1  UNL1        0.2030
     20 O          67.1304   93.3407   16.7407 O.2     1  UNL1       -0.2863
     21 C          67.0135   93.5216   14.1516 C.ar    1  UNL1        0.0955
     22 C          66.3962   93.1119   12.8472 C.ar    1  UNL1        0.2024
     23 O          65.2784   92.1119   12.8278 O.2     1  UNL1       -0.4398
     24 C          64.7779   91.5214   14.1127 C.ar    1  UNL1        0.1498
     25 N          66.8967   93.7024   11.5624 N.pl3   1  UNL1       -0.2742
     26 C          66.6273   95.1432   11.2440 C.3     1  UNL1        0.1257
     27 C          67.1277   95.7336    9.9591 C.3     1  UNL1        0.1637
     28 O          67.8976   94.8833    8.9927 O.3     1  UNL1       -0.3501
     29 C          68.1671   93.4425    9.3110 C.3     1  UNL1        0.1637
     30 C          67.6666   92.8520   10.5959 C.3     1  UNL1        0.1257
     31 C          59.9507   89.5693    8.3851 C.2     1  UNL1        0.2425
     32 O          59.3280   90.6652    9.1981 O.2     1  UNL1       -0.2733
     33 N          61.1908   88.8829    8.8762 N.am    1  UNL1       -0.2828
     34 H          61.5994   88.1636    8.3425 H       1  UNL1        0.1549
     35 C          59.3334   89.1597    7.0808 C.3     1  UNL1        0.1588
     36 N          59.3133   92.0180    3.6051 N.3     1  UNL1       -0.2703
     37 C          60.6034   91.4075    4.0667 C.3     1  UNL1        0.0897
     38 C          60.6101   90.4548    5.2252 C.3     1  UNL1        0.0900
     39 N          59.3267   90.1124    5.9223 N.3     1  UNL1       -0.2626
     40 C          58.0366   90.7229    5.4607 C.3     1  UNL1        0.0900
     41 C          58.0299   91.6756    4.3021 C.3     1  UNL1        0.0897
     42 C          60.5547   93.7198    2.0844 C.3     1  UNL1        0.0188
     43 C          59.3066   92.9707    2.4466 C.3     1  UNL1        0.0722
@<TRIPOS>BOND
     1    42    43    1
     2    43    36    1
     3    36    37    1
     4    37    38    1
     5    38    39    1
     6    39    35    1
     7    35    31    1
     8    31    32    2
     9    31    33   am
    10    33     1    1
    11     1     2   ar
    12     2     3   ar
    13     3     4   ar
    14     4    14    1
    15    14    15   ar
    16    15    16   ar
    17    16    17   ar
    18    17    18   ar
    19    18    19   ar
    20    19    20    2
    21    19    21   ar
    22    21    22   ar
    23    22    25    1
    24    25    26    1
    25    26    27    1
    26    27    28    1
    27    28    29    1
    28    29    30    1
    29    22    23   ar
    30    23    24   ar
    31     4     5   ar
    32     5     6   ar
    33     6     7   ar
    34     7     8   ar
    35     8     9   ar
    36     9    10   ar
    37    10    11   ar
    38    11    12   ar
    39    12    13   ar
    40    39    40    1
    41    40    41    1
    42    41    36    1
    43    13     1   ar
    44    24    14   ar
    45    13     5   ar
    46    24    18   ar
    47    12     7   ar
    48    30    25    1
    49    33    34    1
@<TRIPOS>MOLECULE
*****
 43 49 0 0 0
SMALL
GASTEIGER

@<TRIPOS>ATOM
      1 C          62.2920   88.7205   11.6168 C.ar    1  UNL1        0.0508
      2 C          62.2321   90.2192   11.5962 C.ar    1  UNL1        0.0147
      3 C          62.9618   91.0134   12.6387 C.ar    1  UNL1        0.0019
      4 C          63.7515   90.3088   13.7018 C.ar    1  UNL1        0.0090
      5 C          63.8114   88.8102   13.7223 C.ar    1  UNL1        0.0307
      6 S          64.5033   87.8458   14.6395 S.2     1  UNL1       -0.0869
      7 C          64.2013   86.4556   14.1638 C.ar    1  UNL1        0.0295
      8 C          64.6128   85.1076   14.6771 C.ar    1  UNL1        0.0065
      9 C          64.1456   83.8648   13.9791 C.ar    1  UNL1        0.0005
     10 C          63.2669   83.9700   12.7680 C.ar    1  UNL1        0.0000
     11 C          62.8554   85.3180   12.2548 C.ar    1  UNL1        0.0006
     12 C          63.3226   86.5608   12.9527 C.ar    1  UNL1        0.0077
     13 C          63.0816   88.0160   12.6799 C.ar    1  UNL1        0.0200
     14 C          64.4812   91.1030   14.7443 C.ar    1  UNL1        0.0352
     15 C          64.0802   90.9959   16.1858 C.ar    1  UNL1        0.0031
     16 C          64.8098   91.7900   17.2283 C.ar    1  UNL1        0.0003
     17 C          65.9406   92.6913   16.8294 C.ar    1  UNL1        0.0062
     18 C          66.3416   92.7984   15.3879 C.ar    1  UNL1        0.0736
     19 C          67.4723   93.6997   14.9890 C.ar    1  UNL1        0.2030
     20 O          68.2020   94.4939   16.0315 O.2     1  UNL1       -0.2863
     21 C          67.8733   93.8069   13.5476 C.ar    1  UNL1        0.0955
     22 C          67.1436   93.0127   12.5050 C.ar    1  UNL1        0.2024
     23 O          66.0128   92.1114   12.9039 O.2     1  UNL1       -0.4398
     24 C          65.6118   92.0043   14.3454 C.ar    1  UNL1        0.1498
     25 N          67.5446   93.1199   11.0636 N.pl3   1  UNL1       -0.2742
     26 C          67.1690   94.3353   10.2690 C.3     1  UNL1        0.1257
     27 C          67.5700   94.4425    8.8276 C.3     1  UNL1        0.1637
     28 O          68.3466   93.3342    8.1808 O.3     1  UNL1       -0.3501
     29 C          68.7222   92.1186    8.9754 C.3     1  UNL1        0.1637
     30 C          68.3212   92.0115   10.4168 C.3     1  UNL1        0.1257
     31 C          60.0691   87.7979   10.6383 C.2     1  UNL1        0.2425
     32 O          59.3057   88.4634   11.7447 O.2     1  UNL1       -0.2733
     33 N          61.5622   87.9264   10.5742 N.am    1  UNL1       -0.2828
     34 H          62.0632   87.4895    9.8480 H       1  UNL1        0.1549
     35 C          59.3394   87.0037    9.5957 C.3     1  UNL1        0.1588
     36 N          61.6474   84.7812    6.4360 N.3     1  UNL1       -0.2703
     37 C          60.2010   85.1119    6.2151 C.3     1  UNL1        0.0897
     38 C          59.4317   85.8527    7.2683 C.3     1  UNL1        0.0900
     39 N          60.1087   86.2629    8.5425 N.3     1  UNL1       -0.2626
     40 C          61.5550   85.9323    8.7634 C.3     1  UNL1        0.0900
     41 C          62.3244   85.1914    7.7102 C.3     1  UNL1        0.0897
     42 C          61.8965   83.9799    3.9772 C.3     1  UNL1        0.0188
     43 C          62.4167   84.0404    5.3828 C.3     1  UNL1        0.0722
@<TRIPOS>BOND
     1    42    43    1
     2    43    36    1
     3    36    37    1
     4    37    38    1
     5    38    39    1
     6    39    35    1
     7    35    31    1
     8    31    32    2
     9    31    33   am
    10    33     1    1
    11     1     2   ar
    12     2     3   ar
    13     3     4   ar
    14     4    14    1
    15    14    15   ar
    16    15    16   ar
    17    16    17   ar
    18    17    18   ar
    19    18    19   ar
    20    19    20    2
    21    19    21   ar
    22    21    22   ar
    23    22    25    1
    24    25    26    1
    25    26    27    1
    26    27    28    1
    27    28    29    1
    28    29    30    1
    29    22    23   ar
    30    23    24   ar
    31     4     5   ar
    32     5     6   ar
    33     6     7   ar
    34     7     8   ar
    35     8     9   ar
    36     9    10   ar
    37    10    11   ar
    38    11    12   ar
    39    12    13   ar
    40    39    40    1
    41    40    41    1
    42    41    36    1
    43    13     1   ar
    44    24    14   ar
    45    13     5   ar
    46    24    18   ar
    47    12     7   ar
    48    30    25    1
    49    33    34    1
