@<TRIPOS>MOLECULE
*****
 29 32 0 0 0
SMALL
GASTEIGER

@<TRIPOS>ATOM
      1 C          59.6186   88.3571    7.7493 C.ar    1  UNL1        0.1388
      2 C          59.5582   86.8715    7.9471 C.ar    1  UNL1        0.0384
      3 C          60.3789   86.2241    9.0229 C.ar    1  UNL1        0.0221
      4 C          61.2599   87.0624    9.9010 C.ar    1  UNL1        0.0825
      5 C          61.3203   88.5480    9.7032 C.ar    1  UNL1        0.0194
      6 C          60.4996   89.1954    8.6273 C.ar    1  UNL1        0.0382
      7 C          62.2734   89.1121   10.7149 C.ar    1  UNL1        0.0144
      8 C          62.8020   87.9749   11.5380 C.ar    1  UNL1        0.0970
      9 N          62.1756   86.7082   11.0350 N.ar    1  UNL1       -0.2080
     10 S          62.4218   85.3293   11.5717 S.O2    1  UNL1        0.0860
     11 O          62.9108   84.8916   10.2229 O.2     1  UNL1       -0.1476
     12 O          61.9328   85.7670   12.9205 O.2     1  UNL1       -0.1476
     13 C          62.6679   83.9504   12.1085 C.ar    1  UNL1        0.1278
     14 C          62.6731   83.7119   13.5893 C.ar    1  UNL1        0.0227
     15 C          62.9192   82.3329   14.1261 C.ar    1  UNL1        0.0310
     16 C          63.1602   81.1926   13.1819 C.ar    1  UNL1        0.1402
     17 F          63.4063   79.8137   13.7186 F       1  UNL1       -0.2042
     18 C          63.1550   81.4311   11.7010 C.ar    1  UNL1        0.0310
     19 C          62.9089   82.8100   11.1643 C.ar    1  UNL1        0.0227
     20 C          59.3541   90.1638    5.9011 C.3     1  UNL1        0.2525
     21 O          58.7979   89.0045    6.6734 O.3     1  UNL1       -0.4714
     22 C          62.6344   90.5591   10.8754 C.3     1  UNL1        0.1008
     23 N          63.5044   90.9928   12.0177 N.3     1  UNL1       -0.2665
     24 C          64.6741   91.8980   11.7681 C.3     1  UNL1        0.0899
     25 C          65.5441   92.3317   12.9105 C.3     1  UNL1        0.0897
     26 N          65.2444   91.8602   14.3026 N.3     1  UNL1       -0.2691
     27 C          66.1144   92.2939   15.4449 C.3     1  UNL1        0.0897
     28 C          64.0746   90.9550   14.5522 C.3     1  UNL1        0.0897
     29 C          63.2046   90.5212   13.4098 C.3     1  UNL1        0.0899
@<TRIPOS>BOND
     1    20    21    1
     2    21     1    1
     3     1     2   ar
     4     2     3   ar
     5     3     4   ar
     6     4     5   ar
     7     5     6   ar
     8     5     7   ar
     9     7    22    1
    10    22    23    1
    11    23    24    1
    12    24    25    1
    13    25    26    1
    14    26    27    1
    15    26    28    1
    16    28    29    1
    17     7     8   ar
    18     8     9   ar
    19     9    10    1
    20    10    11    2
    21    10    12    2
    22    10    13    1
    23    13    14   ar
    24    14    15   ar
    25    15    16   ar
    26    16    17    1
    27    16    18   ar
    28    18    19   ar
    29     6     1   ar
    30    29    23    1
    31    19    13   ar
    32     9     4   ar
@<TRIPOS>MOLECULE
*****
 29 32 0 0 0
SMALL
GASTEIGER

@<TRIPOS>ATOM
      1 C          60.1088   89.1491    8.4658 C.ar    1  UNL1        0.1388
      2 C          60.0462   87.6515    8.5231 C.ar    1  UNL1        0.0384
      3 C          60.8428   86.9065    9.5528 C.ar    1  UNL1        0.0221
      4 C          61.7020   87.6590   10.5252 C.ar    1  UNL1        0.0825
      5 C          61.7645   89.1565   10.4678 C.ar    1  UNL1        0.0194
      6 C          60.9679   89.9016    9.4381 C.ar    1  UNL1        0.0382
      7 C          62.6931   89.6235   11.5495 C.ar    1  UNL1        0.0144
      8 C          63.2043   88.4144   12.2753 C.ar    1  UNL1        0.0970
      9 N          62.5918   87.2003   11.6422 N.ar    1  UNL1       -0.2080
     10 S          62.8277   85.7773   12.0539 S.O2    1  UNL1        0.0860
     11 O          62.2385   85.3047   10.7580 O.2     1  UNL1       -0.1476
     12 O          63.4168   86.2500   13.3499 O.2     1  UNL1       -0.1476
     13 C          63.0636   84.3543   12.4657 C.ar    1  UNL1        0.1278
     14 C          63.2051   84.0075   13.9181 C.ar    1  UNL1        0.0227
     15 C          63.4410   82.5844   14.3299 C.ar    1  UNL1        0.0310
     16 C          63.5354   81.5084   13.2891 C.ar    1  UNL1        0.1402
     17 F          63.7713   80.0854   13.7008 F       1  UNL1       -0.2042
     18 C          63.3938   81.8553   11.8367 C.ar    1  UNL1        0.0310
     19 C          63.1579   83.2783   11.4250 C.ar    1  UNL1        0.0227
     20 C          59.5097   89.6008    5.9784 C.3     1  UNL1        0.2525
     21 O          59.3122   89.8942    7.4361 O.3     1  UNL1       -0.4714
     22 C          63.0480   91.0491   11.8521 C.3     1  UNL1        0.1008
     23 N          64.3485   91.3713   12.5265 N.3     1  UNL1       -0.2665
     24 C          64.5870   90.9372   13.9423 C.3     1  UNL1        0.0899
     25 C          65.8876   91.2593   14.6166 C.3     1  UNL1        0.0897
     26 N          66.9497   92.0157   13.8751 N.3     1  UNL1       -0.2691
     27 C          68.2503   92.3378   14.5495 C.3     1  UNL1        0.0897
     28 C          66.7112   92.4498   12.4592 C.3     1  UNL1        0.0897
     29 C          65.4107   92.1276   11.7849 C.3     1  UNL1        0.0899
@<TRIPOS>BOND
     1    20    21    1
     2    21     1    1
     3     1     2   ar
     4     2     3   ar
     5     3     4   ar
     6     4     5   ar
     7     5     6   ar
     8     5     7   ar
     9     7    22    1
    10    22    23    1
    11    23    24    1
    12    24    25    1
    13    25    26    1
    14    26    27    1
    15    26    28    1
    16    28    29    1
    17     7     8   ar
    18     8     9   ar
    19     9    10    1
    20    10    11    2
    21    10    12    2
    22    10    13    1
    23    13    14   ar
    24    14    15   ar
    25    15    16   ar
    26    16    17    1
    27    16    18   ar
    28    18    19   ar
    29     6     1   ar
    30    29    23    1
    31    19    13   ar
    32     9     4   ar
@<TRIPOS>MOLECULE
*****
 29 32 0 0 0
SMALL
GASTEIGER

@<TRIPOS>ATOM
      1 C          61.2024   89.2726   11.5755 C.ar    1  UNL1        0.1388
      2 C          61.6081   90.1150   10.4026 C.ar    1  UNL1        0.0384
      3 C          62.7820   91.0419   10.5152 C.ar    1  UNL1        0.0221
      4 C          63.5503   91.1264   11.8007 C.ar    1  UNL1        0.0825
      5 C          63.1446   90.2841   12.9736 C.ar    1  UNL1        0.0194
      6 C          61.9706   89.3572   12.8610 C.ar    1  UNL1        0.0382
      7 C          64.0856   90.5791   14.1039 C.ar    1  UNL1        0.0144
      8 C          65.0730   91.6038   13.6295 C.ar    1  UNL1        0.0970
      9 N          64.7421   91.9421   12.2060 N.ar    1  UNL1       -0.2080
     10 S          65.4744   92.9237   11.3399 S.O2    1  UNL1        0.0860
     11 O          65.7439   93.7818   12.5403 O.2     1  UNL1       -0.1476
     12 O          65.2049   92.0656   10.1395 O.2     1  UNL1       -0.1476
     13 C          66.2068   93.9053   10.4737 C.ar    1  UNL1        0.1278
     14 C          67.3251   93.4375    9.5904 C.ar    1  UNL1        0.0227
     15 C          68.0575   94.4191    8.7242 C.ar    1  UNL1        0.0310
     16 C          67.6714   95.8685    8.7415 C.ar    1  UNL1        0.1402
     17 F          68.4037   96.8501    7.8753 F       1  UNL1       -0.2042
     18 C          66.5530   96.3362    9.6249 C.ar    1  UNL1        0.0310
     19 C          65.8207   95.3546   10.4910 C.ar    1  UNL1        0.0227
     20 C          59.8424   87.5178   10.2260 C.3     1  UNL1        0.2525
     21 O          60.0284   88.3457   11.4629 O.3     1  UNL1       -0.4714
     22 C          64.0463   89.9584   15.4689 C.3     1  UNL1        0.1008
     23 N          63.8390   88.4800   15.6148 N.3     1  UNL1       -0.2665
     24 C          64.4015   87.5391   14.5910 C.3     1  UNL1        0.0899
     25 C          64.1943   86.0607   14.7368 C.3     1  UNL1        0.0897
     26 N          63.4244   85.5231   15.9066 N.3     1  UNL1       -0.2691
     27 C          63.2171   84.0447   16.0525 C.3     1  UNL1        0.0897
     28 C          62.8618   86.4641   16.9305 C.3     1  UNL1        0.0897
     29 C          63.0691   87.9425   16.7846 C.3     1  UNL1        0.0899
@<TRIPOS>BOND
     1    20    21    1
     2    21     1    1
     3     1     2   ar
     4     2     3   ar
     5     3     4   ar
     6     4     5   ar
     7     5     6   ar
     8     5     7   ar
     9     7    22    1
    10    22    23    1
    11    23    24    1
    12    24    25    1
    13    25    26    1
    14    26    27    1
    15    26    28    1
    16    28    29    1
    17     7     8   ar
    18     8     9   ar
    19     9    10    1
    20    10    11    2
    21    10    12    2
    22    10    13    1
    23    13    14   ar
    24    14    15   ar
    25    15    16   ar
    26    16    17    1
    27    16    18   ar
    28    18    19   ar
    29     6     1   ar
    30    29    23    1
    31    19    13   ar
    32     9     4   ar
@<TRIPOS>MOLECULE
*****
 29 32 0 0 0
SMALL
GASTEIGER

@<TRIPOS>ATOM
      1 C          64.8285   90.4289   14.4529 C.ar    1  UNL1        0.1388
      2 C          64.0998   91.1503   13.3582 C.ar    1  UNL1        0.0384
      3 C          63.2742   90.3787   12.3717 C.ar    1  UNL1        0.0221
      4 C          63.1773   88.8858   12.4801 C.ar    1  UNL1        0.0825
      5 C          63.9060   88.1644   13.5749 C.ar    1  UNL1        0.0194
      6 C          64.7316   88.9360   14.5613 C.ar    1  UNL1        0.0382
      7 C          63.6247   86.6980   13.4311 C.ar    1  UNL1        0.0144
      8 C          62.7221   86.5132   12.2474 C.ar    1  UNL1        0.0970
      9 N          62.4456   87.8653   11.6597 N.ar    1  UNL1       -0.2080
     10 S          61.5879   88.1473   10.4618 S.O2    1  UNL1        0.0860
     11 O          62.7131   87.7357    9.5593 O.2     1  UNL1       -0.1476
     12 O          60.4628   88.5589   11.3643 O.2     1  UNL1       -0.1476
     13 C          60.7302   88.4294    9.2639 C.ar    1  UNL1        0.1278
     14 C          59.9672   87.3165    8.6090 C.ar    1  UNL1        0.0227
     15 C          59.1094   87.5986    7.4111 C.ar    1  UNL1        0.0310
     16 C          59.0149   88.9937    6.8683 C.ar    1  UNL1        0.1402
     17 F          58.1572   89.2759    5.6705 F       1  UNL1       -0.2042
     18 C          59.7780   90.1067    7.5233 C.ar    1  UNL1        0.0310
     19 C          60.6357   89.8245    8.7211 C.ar    1  UNL1        0.0227
     20 C          66.2355   92.5285   15.0545 C.3     1  UNL1        0.2525
     21 O          65.6541   91.2005   15.4394 O.3     1  UNL1       -0.4714
     22 C          64.1532   85.6080   14.3156 C.3     1  UNL1        0.1008
     23 N          63.7166   84.1892   14.0999 N.3     1  UNL1       -0.2665
     24 C          62.5070   83.6602   14.8119 C.3     1  UNL1        0.0899
     25 C          62.0704   82.2415   14.5961 C.3     1  UNL1        0.0897
     26 N          62.8435   81.3517   13.6684 N.3     1  UNL1       -0.2691
     27 C          62.4069   79.9329   13.4527 C.3     1  UNL1        0.0897
     28 C          64.0532   81.8807   12.9565 C.3     1  UNL1        0.0897
     29 C          64.4897   83.2995   13.1722 C.3     1  UNL1        0.0899
@<TRIPOS>BOND
     1    20    21    1
     2    21     1    1
     3     1     2   ar
     4     2     3   ar
     5     3     4   ar
     6     4     5   ar
     7     5     6   ar
     8     5     7   ar
     9     7    22    1
    10    22    23    1
    11    23    24    1
    12    24    25    1
    13    25    26    1
    14    26    27    1
    15    26    28    1
    16    28    29    1
    17     7     8   ar
    18     8     9   ar
    19     9    10    1
    20    10    11    2
    21    10    12    2
    22    10    13    1
    23    13    14   ar
    24    14    15   ar
    25    15    16   ar
    26    16    17    1
    27    16    18   ar
    28    18    19   ar
    29     6     1   ar
    30    29    23    1
    31    19    13   ar
    32     9     4   ar
@<TRIPOS>MOLECULE
*****
 29 32 0 0 0
SMALL
GASTEIGER

@<TRIPOS>ATOM
      1 C          60.6043   89.1905    8.9493 C.ar    1  UNL1        0.1388
      2 C          60.5320   87.6929    8.9068 C.ar    1  UNL1        0.0384
      3 C          61.2417   86.8780    9.9471 C.ar    1  UNL1        0.0221
      4 C          62.0237   87.5606   11.0298 C.ar    1  UNL1        0.0825
      5 C          62.0960   89.0582   11.0723 C.ar    1  UNL1        0.0194
      6 C          61.3863   89.8732   10.0320 C.ar    1  UNL1        0.0382
      7 C          62.9375   89.4485   12.2512 C.ar    1  UNL1        0.0144
      8 C          63.3853   88.1920   12.9373 C.ar    1  UNL1        0.0970
      9 N          62.8205   87.0252   12.1824 N.ar    1  UNL1       -0.2080
     10 S          63.0179   85.5773   12.5208 S.O2    1  UNL1        0.0860
     11 O          62.7282   85.2051   11.0969 O.2     1  UNL1       -0.1476
     12 O          63.3075   85.9495   13.9447 O.2     1  UNL1       -0.1476
     13 C          63.2152   84.1293   12.8592 C.ar    1  UNL1        0.1278
     14 C          63.1978   83.6848   14.2916 C.ar    1  UNL1        0.0227
     15 C          63.3952   82.2368   14.6301 C.ar    1  UNL1        0.0310
     16 C          63.6100   81.2334   13.5359 C.ar    1  UNL1        0.1402
     17 F          63.8074   79.7855   13.8743 F       1  UNL1       -0.2042
     18 C          63.6274   81.6780   12.1034 C.ar    1  UNL1        0.0310
     19 C          63.4300   83.1260   11.7651 C.ar    1  UNL1        0.0227
     20 C          59.3030   89.3341    6.7052 C.3     1  UNL1        0.2525
     21 O          59.8946   90.0055    7.9090 O.3     1  UNL1       -0.4714
     22 C          63.2724   90.8493   12.6703 C.3     1  UNL1        0.1008
     23 N          64.4439   91.5562   12.0556 N.3     1  UNL1       -0.2665
     24 C          64.3737   92.0273   10.6333 C.3     1  UNL1        0.0899
     25 C          65.5451   92.7342   10.0186 C.3     1  UNL1        0.0897
     26 N          66.7869   92.9701   10.8263 N.3     1  UNL1       -0.2691
     27 C          67.9584   93.6771   10.2116 C.3     1  UNL1        0.0897
     28 C          66.8571   92.4990   12.2487 C.3     1  UNL1        0.0897
     29 C          65.6857   91.7920   12.8634 C.3     1  UNL1        0.0899
@<TRIPOS>BOND
     1    20    21    1
     2    21     1    1
     3     1     2   ar
     4     2     3   ar
     5     3     4   ar
     6     4     5   ar
     7     5     6   ar
     8     5     7   ar
     9     7    22    1
    10    22    23    1
    11    23    24    1
    12    24    25    1
    13    25    26    1
    14    26    27    1
    15    26    28    1
    16    28    29    1
    17     7     8   ar
    18     8     9   ar
    19     9    10    1
    20    10    11    2
    21    10    12    2
    22    10    13    1
    23    13    14   ar
    24    14    15   ar
    25    15    16   ar
    26    16    17    1
    27    16    18   ar
    28    18    19   ar
    29     6     1   ar
    30    29    23    1
    31    19    13   ar
    32     9     4   ar
@<TRIPOS>MOLECULE
*****
 29 32 0 0 0
SMALL
GASTEIGER

@<TRIPOS>ATOM
      1 C          60.0047   88.8374    8.5942 C.ar    1  UNL1        0.1388
      2 C          60.3915   90.1006    9.3046 C.ar    1  UNL1        0.0384
      3 C          61.3657   90.0521   10.4441 C.ar    1  UNL1        0.0221
      4 C          61.9531   88.7404   10.8733 C.ar    1  UNL1        0.0825
      5 C          61.5663   87.4772   10.1630 C.ar    1  UNL1        0.0194
      6 C          60.5921   87.5257    9.0235 C.ar    1  UNL1        0.0382
      7 C          62.3043   86.3398   10.8049 C.ar    1  UNL1        0.0144
      8 C          63.1471   86.9002   11.9119 C.ar    1  UNL1        0.0970
      9 N          62.9301   88.3838   11.9542 N.ar    1  UNL1       -0.2080
     10 S          63.5766   89.3426   12.9096 S.O2    1  UNL1        0.0860
     11 O          63.5388   88.2969   13.9844 O.2     1  UNL1       -0.1476
     12 O          63.6143   90.3882   11.8348 O.2     1  UNL1       -0.1476
     13 C          64.2231   90.3014   13.8651 C.ar    1  UNL1        0.1278
     14 C          63.6730   90.4649   15.2508 C.ar    1  UNL1        0.0227
     15 C          64.3195   91.4237   16.2063 C.ar    1  UNL1        0.0310
     16 C          65.5162   92.2190   15.7757 C.ar    1  UNL1        0.1402
     17 F          66.1627   93.1778   16.7311 F       1  UNL1       -0.2042
     18 C          66.0663   92.0555   14.3899 C.ar    1  UNL1        0.0310
     19 C          65.4198   91.0967   13.4345 C.ar    1  UNL1        0.0227
     20 C          59.3290   89.7254    6.2480 C.3     1  UNL1        0.2525
     21 O          59.0305   88.8859    7.4547 O.3     1  UNL1       -0.4714
     22 C          62.2150   84.8957   10.4092 C.3     1  UNL1        0.1008
     23 N          62.5894   83.8247   11.3904 N.3     1  UNL1       -0.2665
     24 C          63.1555   82.5245   10.9017 C.3     1  UNL1        0.0899
     25 C          63.5300   81.4535   11.8829 C.3     1  UNL1        0.0897
     26 N          63.3384   81.6827   13.3528 N.3     1  UNL1       -0.2691
     27 C          63.7128   80.6117   14.3340 C.3     1  UNL1        0.0897
     28 C          62.7722   82.9830   13.8415 C.3     1  UNL1        0.0897
     29 C          62.3978   84.0540   12.8603 C.3     1  UNL1        0.0899
@<TRIPOS>BOND
     1    20    21    1
     2    21     1    1
     3     1     2   ar
     4     2     3   ar
     5     3     4   ar
     6     4     5   ar
     7     5     6   ar
     8     5     7   ar
     9     7    22    1
    10    22    23    1
    11    23    24    1
    12    24    25    1
    13    25    26    1
    14    26    27    1
    15    26    28    1
    16    28    29    1
    17     7     8   ar
    18     8     9   ar
    19     9    10    1
    20    10    11    2
    21    10    12    2
    22    10    13    1
    23    13    14   ar
    24    14    15   ar
    25    15    16   ar
    26    16    17    1
    27    16    18   ar
    28    18    19   ar
    29     6     1   ar
    30    29    23    1
    31    19    13   ar
    32     9     4   ar
