@<TRIPOS>MOLECULE
*****
 30 32 0 0 0
SMALL
GASTEIGER

@<TRIPOS>ATOM
      1 C          63.3643   86.9382   12.8402 C.2     1  UNL1        0.4125
      2 O          64.0352   86.7761   14.1720 O.2     1  UNL1       -0.2255
      3 N          62.9000   85.7298   12.0823 N.am    1  UNL1       -0.2037
      4 C          62.2292   85.8919   10.7505 C.ar    1  UNL1        0.0635
      5 C          60.9346   86.6427   10.6492 C.ar    1  UNL1        0.0155
      6 C          60.2638   86.8048    9.3174 C.ar    1  UNL1        0.0036
      7 C          60.8876   86.2160    8.0869 C.ar    1  UNL1        0.0297
      8 C          62.1822   85.4651    8.1882 C.ar    1  UNL1        0.1414
      9 F          62.8059   84.8763    6.9577 F       1  UNL1       -0.2041
     10 C          62.8530   85.3030    9.5199 C.ar    1  UNL1        0.0450
     11 C          63.1065   84.3594   12.6563 C.ar    1  UNL1        0.0613
     12 C          62.2792   83.9015   13.8206 C.ar    1  UNL1        0.0153
     13 C          62.4857   82.5311   14.3946 C.ar    1  UNL1        0.0013
     14 C          63.5196   81.6187   13.8042 C.ar    1  UNL1        0.0001
     15 C          64.3470   82.0766   12.6398 C.ar    1  UNL1        0.0013
     16 C          64.1405   83.4470   12.0658 C.ar    1  UNL1        0.0153
     17 O          63.1578   88.3085   12.2663 O.3     1  UNL1       -0.4341
     18 C          63.3058   89.5181   13.1409 C.3     1  UNL1        0.2100
     19 C          65.5217   93.1309   11.6284 C.3     1  UNL1        0.0297
     20 C          65.7337   92.6556   13.0352 C.3     1  UNL1        0.0026
     21 C          64.9951   91.4514   13.5394 C.3     1  UNL1        0.0038
     22 C          64.0445   90.7224   12.6367 C.3     1  UNL1        0.0439
     23 C          63.8325   91.1976   11.2299 C.3     1  UNL1        0.0038
     24 C          64.5711   92.4019   10.7258 C.3     1  UNL1        0.0026
     25 C          66.2604   94.3351   11.1242 C.3     1  UNL1        0.1426
     26 O          66.5679   94.4686    9.6622 O.3     1  UNL1       -0.3478
     27 C          67.9520   94.1859    9.1580 C.3     1  UNL1        0.1835
     28 O          68.8858   92.0315    8.0460 O.co2   1  UNL1       -0.5466
     29 C          68.5272   92.8059    9.2795 C.2     1  UNL1        0.0801
     30 O          68.7438   92.2003   10.6347 O.co2   1  UNL1       -0.5466
@<TRIPOS>UNITY_ATOM_ATTR
28 1
charge -1
@<TRIPOS>BOND
     1    28    29   ar
     2    29    30   ar
     3    29    27    1
     4    27    26    1
     5    26    25    1
     6    19    25    1
     7    19    20    1
     8    20    21    1
     9    21    22    1
    10    22    18    1
    11    18    17    1
    12    17     1    1
    13     1     2    2
    14     1     3   am
    15     3    11    1
    16    11    12   ar
    17    12    13   ar
    18    13    14   ar
    19    14    15   ar
    20    15    16   ar
    21     3     4    1
    22     4     5   ar
    23     5     6   ar
    24     6     7   ar
    25     7     8   ar
    26     8     9    1
    27     8    10   ar
    28    22    23    1
    29    23    24    1
    30    24    19    1
    31    16    11   ar
    32    10     4   ar
@<TRIPOS>MOLECULE
*****
 30 32 0 0 0
SMALL
GASTEIGER

@<TRIPOS>ATOM
      1 C          63.6113   86.2201   13.4748 C.2     1  UNL1        0.4125
      2 O          64.2036   85.8160   14.7923 O.2     1  UNL1       -0.2255
      3 N          63.0329   85.1799   12.5618 N.am    1  UNL1       -0.2037
      4 C          62.4406   85.5840   11.2443 C.ar    1  UNL1        0.0635
      5 C          61.2440   86.4877   11.2055 C.ar    1  UNL1        0.0155
      6 C          60.6517   86.8918    9.8880 C.ar    1  UNL1        0.0036
      7 C          61.2561   86.3923    8.6092 C.ar    1  UNL1        0.0297
      8 C          62.4527   85.4886    8.6480 C.ar    1  UNL1        0.1414
      9 F          63.0570   84.9891    7.3692 F       1  UNL1       -0.2041
     10 C          63.0450   85.0845    9.9655 C.ar    1  UNL1        0.0450
     11 C          63.0468   83.7355   12.9664 C.ar    1  UNL1        0.0613
     12 C          62.0431   83.2245   13.9570 C.ar    1  UNL1        0.0153
     13 C          62.0570   81.7801   14.3616 C.ar    1  UNL1        0.0013
     14 C          63.0746   80.8469   13.7756 C.ar    1  UNL1        0.0001
     15 C          64.0784   81.3579   12.7849 C.ar    1  UNL1        0.0013
     16 C          64.0645   82.8023   12.3803 C.ar    1  UNL1        0.0153
     17 O          63.5974   87.6644   13.0702 O.3     1  UNL1       -0.4341
     18 C          63.8470   88.7324   14.0935 C.3     1  UNL1        0.2100
     19 C          65.6993   92.6431   12.8584 C.3     1  UNL1        0.0297
     20 C          64.6530   92.0030   11.9951 C.3     1  UNL1        0.0026
     21 C          64.0356   90.6995   12.4067 C.3     1  UNL1        0.0038
     22 C          64.4645   90.0360   13.6818 C.3     1  UNL1        0.0439
     23 C          65.5108   90.6760   14.5452 C.3     1  UNL1        0.0038
     24 C          66.1282   91.9796   14.1335 C.3     1  UNL1        0.0026
     25 C          66.3168   93.9467   12.4468 C.3     1  UNL1        0.1426
     26 O          65.8078   94.6677   11.2340 O.3     1  UNL1       -0.3478
     27 C          66.7512   95.4697   10.3873 C.3     1  UNL1        0.1835
     28 O          67.2324   94.9797    7.8816 O.co2   1  UNL1       -0.5466
     29 C          67.5718   94.7916    9.3305 C.2     1  UNL1        0.0801
     30 O          68.7319   93.9253    9.7227 O.co2   1  UNL1       -0.5466
@<TRIPOS>UNITY_ATOM_ATTR
28 1
charge -1
@<TRIPOS>BOND
     1    28    29   ar
     2    29    30   ar
     3    29    27    1
     4    27    26    1
     5    26    25    1
     6    19    25    1
     7    19    20    1
     8    20    21    1
     9    21    22    1
    10    22    18    1
    11    18    17    1
    12    17     1    1
    13     1     2    2
    14     1     3   am
    15     3    11    1
    16    11    12   ar
    17    12    13   ar
    18    13    14   ar
    19    14    15   ar
    20    15    16   ar
    21     3     4    1
    22     4     5   ar
    23     5     6   ar
    24     6     7   ar
    25     7     8   ar
    26     8     9    1
    27     8    10   ar
    28    22    23    1
    29    23    24    1
    30    24    19    1
    31    16    11   ar
    32    10     4   ar
@<TRIPOS>MOLECULE
*****
 30 32 0 0 0
SMALL
GASTEIGER

@<TRIPOS>ATOM
      1 C          62.7477   87.1125   11.5684 C.2     1  UNL1        0.4125
      2 O          63.2795   87.2351   12.9656 O.2     1  UNL1       -0.2255
      3 N          62.6175   85.7607   10.9313 N.am    1  UNL1       -0.2037
      4 C          62.0856   85.6382    9.5342 C.ar    1  UNL1        0.0635
      5 C          62.9429   85.0472    8.4545 C.ar    1  UNL1        0.0155
      6 C          62.4110   84.9247    7.0573 C.ar    1  UNL1        0.0036
      7 C          61.0218   85.3930    6.7399 C.ar    1  UNL1        0.0297
      8 C          60.1645   85.9840    7.8196 C.ar    1  UNL1        0.1414
      9 F          58.7753   86.4523    7.5022 F       1  UNL1       -0.2041
     10 C          60.6964   86.1065    9.2167 C.ar    1  UNL1        0.0450
     11 C          63.0193   84.5316   11.6914 C.ar    1  UNL1        0.0613
     12 C          62.6001   84.3639   13.1218 C.ar    1  UNL1        0.0153
     13 C          63.0019   83.1347   13.8819 C.ar    1  UNL1        0.0013
     14 C          63.8228   82.0733   13.2116 C.ar    1  UNL1        0.0001
     15 C          64.2420   82.2409   11.7812 C.ar    1  UNL1        0.0013
     16 C          63.8403   83.4701   11.0211 C.ar    1  UNL1        0.0153
     17 O          62.3459   88.3417   10.8083 O.3     1  UNL1       -0.4341
     18 C          62.0952   89.6271   11.5395 C.3     1  UNL1        0.2100
     19 C          65.5350   92.3429   12.5604 C.3     1  UNL1        0.0297
     20 C          64.9425   91.4546   13.6139 C.3     1  UNL1        0.0026
     21 C          63.7959   90.5493   13.2736 C.3     1  UNL1        0.0038
     22 C          63.2418   90.5324   11.8798 C.3     1  UNL1        0.0439
     23 C          63.8343   91.4207   10.8264 C.3     1  UNL1        0.0038
     24 C          64.9809   92.3259   11.1667 C.3     1  UNL1        0.0026
     25 C          66.6816   93.2481   12.9007 C.3     1  UNL1        0.1426
     26 O          67.9985   92.6652   13.3201 O.3     1  UNL1       -0.3478
     27 C          68.2180   92.2574   14.7468 C.3     1  UNL1        0.1835
     28 O          68.6088   94.3597   16.2225 O.co2   1  UNL1       -0.5466
     29 C          67.7815   93.1619   15.8610 C.2     1  UNL1        0.0801
     30 O          66.5176   92.8686   16.6137 O.co2   1  UNL1       -0.5466
@<TRIPOS>UNITY_ATOM_ATTR
28 1
charge -1
@<TRIPOS>BOND
     1    28    29   ar
     2    29    30   ar
     3    29    27    1
     4    27    26    1
     5    26    25    1
     6    19    25    1
     7    19    20    1
     8    20    21    1
     9    21    22    1
    10    22    18    1
    11    18    17    1
    12    17     1    1
    13     1     2    2
    14     1     3   am
    15     3    11    1
    16    11    12   ar
    17    12    13   ar
    18    13    14   ar
    19    14    15   ar
    20    15    16   ar
    21     3     4    1
    22     4     5   ar
    23     5     6   ar
    24     6     7   ar
    25     7     8   ar
    26     8     9    1
    27     8    10   ar
    28    22    23    1
    29    23    24    1
    30    24    19    1
    31    16    11   ar
    32    10     4   ar
@<TRIPOS>MOLECULE
*****
 30 32 0 0 0
SMALL
GASTEIGER

@<TRIPOS>ATOM
      1 C          64.6265   91.6656   11.8028 C.2     1  UNL1        0.4125
      2 O          64.0390   91.6887   10.4228 O.2     1  UNL1       -0.2255
      3 N          65.8980   92.4081   12.0891 N.am    1  UNL1       -0.2037
      4 C          66.4855   92.3851   13.4691 C.ar    1  UNL1        0.0635
      5 C          67.9632   92.2038   13.6523 C.ar    1  UNL1        0.0155
      6 C          68.5506   92.1808   15.0323 C.ar    1  UNL1        0.0036
      7 C          67.6603   92.3391   16.2291 C.ar    1  UNL1        0.0297
      8 C          66.1826   92.5204   16.0459 C.ar    1  UNL1        0.1414
      9 F          65.2924   92.6786   17.2427 F       1  UNL1       -0.2041
     10 C          65.5952   92.5434   14.6660 C.ar    1  UNL1        0.0450
     11 C          66.5821   93.1736   10.9955 C.ar    1  UNL1        0.0613
     12 C          67.5692   92.4837   10.1013 C.ar    1  UNL1        0.0153
     13 C          68.2532   93.2491    9.0076 C.ar    1  UNL1        0.0013
     14 C          67.9502   94.7046    8.8081 C.ar    1  UNL1        0.0001
     15 C          66.9630   95.3946    9.7023 C.ar    1  UNL1        0.0013
     16 C          66.2790   94.6291   10.7960 C.ar    1  UNL1        0.0153
     17 O          63.9424   90.9002   12.8964 O.3     1  UNL1       -0.4341
     18 C          63.0623   89.7336   12.5581 C.3     1  UNL1        0.2100
     19 C          64.1334   85.6112   14.0100 C.3     1  UNL1        0.0297
     20 C          63.3408   85.7793   12.7477 C.3     1  UNL1        0.0026
     21 C          62.9838   87.1535   12.2638 C.3     1  UNL1        0.0038
     22 C          63.4193   88.3595   13.0421 C.3     1  UNL1        0.0439
     23 C          64.2119   88.1913   14.3044 C.3     1  UNL1        0.0038
     24 C          64.5690   86.8172   14.7884 C.3     1  UNL1        0.0026
     25 C          64.4905   84.2370   14.4940 C.3     1  UNL1        0.1426
     26 O          63.4900   83.4310   15.2681 O.3     1  UNL1       -0.3478
     27 C          62.2397   82.9436   14.5979 C.3     1  UNL1        0.1835
     28 O          63.2143   80.5826   14.1221 O.co2   1  UNL1       -0.5466
     29 C          62.0345   81.4752   14.3700 C.2     1  UNL1        0.0801
     30 O          60.6496   80.8994   14.3900 O.co2   1  UNL1       -0.5466
@<TRIPOS>UNITY_ATOM_ATTR
28 1
charge -1
@<TRIPOS>BOND
     1    28    29   ar
     2    29    30   ar
     3    29    27    1
     4    27    26    1
     5    26    25    1
     6    19    25    1
     7    19    20    1
     8    20    21    1
     9    21    22    1
    10    22    18    1
    11    18    17    1
    12    17     1    1
    13     1     2    2
    14     1     3   am
    15     3    11    1
    16    11    12   ar
    17    12    13   ar
    18    13    14   ar
    19    14    15   ar
    20    15    16   ar
    21     3     4    1
    22     4     5   ar
    23     5     6   ar
    24     6     7   ar
    25     7     8   ar
    26     8     9    1
    27     8    10   ar
    28    22    23    1
    29    23    24    1
    30    24    19    1
    31    16    11   ar
    32    10     4   ar
@<TRIPOS>MOLECULE
*****
 30 32 0 0 0
SMALL
GASTEIGER

@<TRIPOS>ATOM
      1 C          64.7119   91.6252   12.3366 C.2     1  UNL1        0.4125
      2 O          64.1437   90.9762   13.5638 O.2     1  UNL1       -0.2255
      3 N          66.0313   92.3355   12.4063 N.am    1  UNL1       -0.2037
      4 C          66.5994   92.9844   11.1792 C.ar    1  UNL1        0.0635
      5 C          66.1872   94.3783   10.8087 C.ar    1  UNL1        0.0155
      6 C          66.7554   95.0273    9.5815 C.ar    1  UNL1        0.0036
      7 C          67.7358   94.2824    8.7248 C.ar    1  UNL1        0.0297
      8 C          68.1480   92.8886    9.0952 C.ar    1  UNL1        0.1414
      9 F          69.1283   92.1437    8.2385 F       1  UNL1       -0.2041
     10 C          67.5798   92.2396   10.3224 C.ar    1  UNL1        0.0450
     11 C          66.7824   92.3967   13.7032 C.ar    1  UNL1        0.0613
     12 C          68.2378   92.0361   13.7448 C.ar    1  UNL1        0.0153
     13 C          68.9890   92.0974   15.0417 C.ar    1  UNL1        0.0013
     14 C          68.2848   92.5192   16.2971 C.ar    1  UNL1        0.0001
     15 C          66.8293   92.8798   16.2556 C.ar    1  UNL1        0.0013
     16 C          66.0781   92.8186   14.9587 C.ar    1  UNL1        0.0153
     17 O          63.9607   91.5639   11.0397 O.3     1  UNL1       -0.4341
     18 C          62.6203   90.8934   10.9803 C.3     1  UNL1        0.2100
     19 C          62.3510   86.4016   10.9442 C.3     1  UNL1        0.0297
     20 C          62.9175   87.1094   12.1392 C.3     1  UNL1        0.0026
     21 C          63.0073   88.6067   12.1512 C.3     1  UNL1        0.0038
     22 C          62.5305   89.3961   10.9682 C.3     1  UNL1        0.0439
     23 C          61.9640   88.6883    9.7733 C.3     1  UNL1        0.0038
     24 C          61.8742   87.1911    9.7613 C.3     1  UNL1        0.0026
     25 C          62.2612   84.9043   10.9322 C.3     1  UNL1        0.1426
     26 O          63.2312   84.0884   11.7341 O.3     1  UNL1       -0.3478
     27 C          62.7290   83.1608   12.8006 C.3     1  UNL1        0.1835
     28 O          63.7483   82.7685   15.1580 O.co2   1  UNL1       -0.5466
     29 C          62.8465   83.5458   14.2456 C.2     1  UNL1        0.0801
     30 O          62.0620   84.7081   14.7782 O.co2   1  UNL1       -0.5466
@<TRIPOS>UNITY_ATOM_ATTR
28 1
charge -1
@<TRIPOS>BOND
     1    28    29   ar
     2    29    30   ar
     3    29    27    1
     4    27    26    1
     5    26    25    1
     6    19    25    1
     7    19    20    1
     8    20    21    1
     9    21    22    1
    10    22    18    1
    11    18    17    1
    12    17     1    1
    13     1     2    2
    14     1     3   am
    15     3    11    1
    16    11    12   ar
    17    12    13   ar
    18    13    14   ar
    19    14    15   ar
    20    15    16   ar
    21     3     4    1
    22     4     5   ar
    23     5     6   ar
    24     6     7   ar
    25     7     8   ar
    26     8     9    1
    27     8    10   ar
    28    22    23    1
    29    23    24    1
    30    24    19    1
    31    16    11   ar
    32    10     4   ar
@<TRIPOS>MOLECULE
*****
 30 32 0 0 0
SMALL
GASTEIGER

@<TRIPOS>ATOM
      1 C          63.0107   90.1361   12.5048 C.2     1  UNL1        0.4125
      2 O          63.1282   91.2349   11.4905 O.2     1  UNL1       -0.2255
      3 N          63.8936   90.1373   13.7175 N.am    1  UNL1       -0.2037
      4 C          63.7762   89.0385   14.7318 C.ar    1  UNL1        0.0635
      5 C          63.0807   89.2930   16.0362 C.ar    1  UNL1        0.0155
      6 C          62.9633   88.1941   17.0505 C.ar    1  UNL1        0.0036
      7 C          63.5413   86.8408   16.7603 C.ar    1  UNL1        0.0297
      8 C          64.2368   86.5862   15.4559 C.ar    1  UNL1        0.1414
      9 F          64.8149   85.2329   15.1657 F       1  UNL1       -0.2041
     10 C          64.3542   87.6850   14.4417 C.ar    1  UNL1        0.0450
     11 C          64.8938   91.2374   13.9159 C.ar    1  UNL1        0.0613
     12 C          65.3603   91.5866   15.2981 C.ar    1  UNL1        0.0153
     13 C          66.3605   92.6867   15.4965 C.ar    1  UNL1        0.0013
     14 C          66.8943   93.4375   14.3127 C.ar    1  UNL1        0.0001
     15 C          66.4279   93.0883   12.9305 C.ar    1  UNL1        0.0013
     16 C          65.4276   91.9882   12.7321 C.ar    1  UNL1        0.0153
     17 O          62.0105   89.0360   12.3064 O.3     1  UNL1       -0.4341
     18 C          61.9401   88.3142   10.9934 C.3     1  UNL1        0.2100
     19 C          63.1977   84.0017   10.7263 C.3     1  UNL1        0.0297
     20 C          62.9644   84.7939    9.4741 C.3     1  UNL1        0.0026
     21 C          62.5452   86.2314    9.5632 C.3     1  UNL1        0.0038
     22 C          62.3593   86.8767   10.9044 C.3     1  UNL1        0.0439
     23 C          62.5925   86.0846   12.1566 C.3     1  UNL1        0.0038
     24 C          63.0117   84.6471   12.0676 C.3     1  UNL1        0.0026
     25 C          63.6169   82.5643   10.6373 C.3     1  UNL1        0.1426
     26 O          63.8986   81.7863   11.8884 O.3     1  UNL1       -0.3478
     27 C          62.8221   80.9439   12.5061 C.3     1  UNL1        0.1835
     28 O          60.8028   80.9501   14.1409 O.co2   1  UNL1       -0.5466
     29 C          62.2119   81.3482   13.8154 C.2     1  UNL1        0.0801
     30 O          63.0108   82.1507   14.7992 O.co2   1  UNL1       -0.5466
@<TRIPOS>UNITY_ATOM_ATTR
28 1
charge -1
@<TRIPOS>BOND
     1    28    29   ar
     2    29    30   ar
     3    29    27    1
     4    27    26    1
     5    26    25    1
     6    19    25    1
     7    19    20    1
     8    20    21    1
     9    21    22    1
    10    22    18    1
    11    18    17    1
    12    17     1    1
    13     1     2    2
    14     1     3   am
    15     3    11    1
    16    11    12   ar
    17    12    13   ar
    18    13    14   ar
    19    14    15   ar
    20    15    16   ar
    21     3     4    1
    22     4     5   ar
    23     5     6   ar
    24     6     7   ar
    25     7     8   ar
    26     8     9    1
    27     8    10   ar
    28    22    23    1
    29    23    24    1
    30    24    19    1
    31    16    11   ar
    32    10     4   ar
@<TRIPOS>MOLECULE
*****
 30 32 0 0 0
SMALL
GASTEIGER

@<TRIPOS>ATOM
      1 C          62.6463   87.8690   11.1576 C.2     1  UNL1        0.4125
      2 O          62.3433   88.9035   10.1145 O.2     1  UNL1       -0.2255
      3 N          62.5094   86.4115   10.8305 N.am    1  UNL1       -0.2037
      4 C          62.8125   85.3771   11.8736 C.ar    1  UNL1        0.0635
      5 C          63.4622   85.7809   13.1639 C.ar    1  UNL1        0.0155
      6 C          63.7652   84.7464   14.2070 C.ar    1  UNL1        0.0036
      7 C          63.4185   83.3082   13.9598 C.ar    1  UNL1        0.0297
      8 C          62.7688   82.9043   12.6696 C.ar    1  UNL1        0.1414
      9 F          62.4222   81.4660   12.4224 F       1  UNL1       -0.2041
     10 C          62.4658   83.9387   11.6265 C.ar    1  UNL1        0.0450
     11 C          62.0695   85.9885    9.4603 C.ar    1  UNL1        0.0613
     12 C          60.6643   86.2548    9.0082 C.ar    1  UNL1        0.0153
     13 C          60.2244   85.8318    7.6380 C.ar    1  UNL1        0.0013
     14 C          61.1896   85.1424    6.7199 C.ar    1  UNL1        0.0001
     15 C          62.5949   84.8760    7.1719 C.ar    1  UNL1        0.0013
     16 C          63.0348   85.2991    8.5422 C.ar    1  UNL1        0.0153
     17 O          63.0862   88.2921   12.5278 O.3     1  UNL1       -0.4341
     18 C          62.8332   89.6940   12.9973 C.3     1  UNL1        0.2100
     19 C          65.6465   93.0032   11.8203 C.3     1  UNL1        0.0297
     20 C          65.6882   92.4424   13.2109 C.3     1  UNL1        0.0026
     21 C          64.7504   91.3394   13.6032 C.3     1  UNL1        0.0038
     22 C          63.7710   90.7971   12.6050 C.3     1  UNL1        0.0439
     23 C          63.7293   91.3578   11.2144 C.3     1  UNL1        0.0038
     24 C          64.6671   92.4609   10.8221 C.3     1  UNL1        0.0026
     25 C          66.5843   94.1062   11.4280 C.3     1  UNL1        0.1426
     26 O          66.7165   94.5012    9.9871 O.3     1  UNL1       -0.3478
     27 C          67.9595   94.1504    9.2242 C.3     1  UNL1        0.1835
     28 O          68.7732   92.1357   10.6487 O.co2   1  UNL1       -0.5466
     29 C          68.5255   92.7639    9.3093 C.2     1  UNL1        0.0801
     30 O          68.8437   92.0055    8.0549 O.co2   1  UNL1       -0.5466
@<TRIPOS>UNITY_ATOM_ATTR
28 1
charge -1
@<TRIPOS>BOND
     1    28    29   ar
     2    29    30   ar
     3    29    27    1
     4    27    26    1
     5    26    25    1
     6    19    25    1
     7    19    20    1
     8    20    21    1
     9    21    22    1
    10    22    18    1
    11    18    17    1
    12    17     1    1
    13     1     2    2
    14     1     3   am
    15     3    11    1
    16    11    12   ar
    17    12    13   ar
    18    13    14   ar
    19    14    15   ar
    20    15    16   ar
    21     3     4    1
    22     4     5   ar
    23     5     6   ar
    24     6     7   ar
    25     7     8   ar
    26     8     9    1
    27     8    10   ar
    28    22    23    1
    29    23    24    1
    30    24    19    1
    31    16    11   ar
    32    10     4   ar
@<TRIPOS>MOLECULE
*****
 30 32 0 0 0
SMALL
GASTEIGER

@<TRIPOS>ATOM
      1 C          62.3920   88.0255   11.0540 C.2     1  UNL1        0.4125
      2 O          61.9835   89.0052    9.9942 O.2     1  UNL1       -0.2255
      3 N          62.3923   86.5553   10.7563 N.am    1  UNL1       -0.2037
      4 C          62.8008   85.5755   11.8161 C.ar    1  UNL1        0.0635
      5 C          62.5276   84.1124   11.6303 C.ar    1  UNL1        0.0155
      6 C          62.9361   83.1326   12.6902 C.ar    1  UNL1        0.0036
      7 C          63.6178   83.6160   13.9358 C.ar    1  UNL1        0.0297
      8 C          63.8910   85.0792   14.1216 C.ar    1  UNL1        0.1414
      9 F          64.5727   85.5626   15.3672 F       1  UNL1       -0.2041
     10 C          63.4825   86.0589   13.0618 C.ar    1  UNL1        0.0450
     11 C          61.9840   86.0649    9.3988 C.ar    1  UNL1        0.0613
     12 C          62.9893   85.3949    8.5098 C.ar    1  UNL1        0.0153
     13 C          62.5811   84.9045    7.1523 C.ar    1  UNL1        0.0013
     14 C          61.1675   85.0841    6.6838 C.ar    1  UNL1        0.0001
     15 C          60.1621   85.7541    7.5728 C.ar    1  UNL1        0.0013
     16 C          60.5704   86.2445    8.9303 C.ar    1  UNL1        0.0153
     17 O          62.8003   88.5159   12.4115 O.3     1  UNL1       -0.4341
     18 C          62.6215   89.9609   12.7721 C.3     1  UNL1        0.2100
     19 C          65.7520   92.9752   11.6043 C.3     1  UNL1        0.0297
     20 C          64.7740   92.4755   10.5827 C.3     1  UNL1        0.0026
     21 C          63.7305   91.4707   10.9719 C.3     1  UNL1        0.0038
     22 C          63.6650   90.9656   12.3828 C.3     1  UNL1        0.0439
     23 C          64.6430   91.4654   13.4044 C.3     1  UNL1        0.0038
     24 C          65.6865   92.4702   13.0152 C.3     1  UNL1        0.0026
     25 C          66.7955   93.9800   11.2151 C.3     1  UNL1        0.1426
     26 O          67.8337   93.6252   10.1923 O.3     1  UNL1       -0.3478
     27 C          67.8064   94.2734    8.8398 C.3     1  UNL1        0.1835
     28 O          67.5993   96.7424    9.6217 O.co2   1  UNL1       -0.5466
     29 C          67.2162   95.6427    8.6762 C.2     1  UNL1        0.0801
     30 O          66.2431   95.9124    7.5670 O.co2   1  UNL1       -0.5466
@<TRIPOS>UNITY_ATOM_ATTR
28 1
charge -1
@<TRIPOS>BOND
     1    28    29   ar
     2    29    30   ar
     3    29    27    1
     4    27    26    1
     5    26    25    1
     6    19    25    1
     7    19    20    1
     8    20    21    1
     9    21    22    1
    10    22    18    1
    11    18    17    1
    12    17     1    1
    13     1     2    2
    14     1     3   am
    15     3    11    1
    16    11    12   ar
    17    12    13   ar
    18    13    14   ar
    19    14    15   ar
    20    15    16   ar
    21     3     4    1
    22     4     5   ar
    23     5     6   ar
    24     6     7   ar
    25     7     8   ar
    26     8     9    1
    27     8    10   ar
    28    22    23    1
    29    23    24    1
    30    24    19    1
    31    16    11   ar
    32    10     4   ar
@<TRIPOS>MOLECULE
*****
 30 32 0 0 0
SMALL
GASTEIGER

@<TRIPOS>ATOM
      1 C          61.8143   87.9644   10.6184 C.2     1  UNL1        0.4125
      2 O          61.3192   88.8187    9.4892 O.2     1  UNL1       -0.2255
      3 N          62.1104   86.5123   10.3863 N.am    1  UNL1       -0.2037
      4 C          62.6054   85.6581   11.5155 C.ar    1  UNL1        0.0635
      5 C          62.3855   84.1746   11.4860 C.ar    1  UNL1        0.0155
      6 C          62.8806   83.3204   12.6153 C.ar    1  UNL1        0.0036
      7 C          63.5956   83.9496   13.7740 C.ar    1  UNL1        0.0297
      8 C          63.8155   85.4331   13.8036 C.ar    1  UNL1        0.1414
      9 F          64.5305   86.0623   14.9623 F       1  UNL1       -0.2041
     10 C          63.3205   86.2873   12.6744 C.ar    1  UNL1        0.0450
     11 C          61.9115   85.9146    9.0250 C.ar    1  UNL1        0.0613
     12 C          63.0658   85.2778    8.3095 C.ar    1  UNL1        0.0153
     13 C          62.8669   84.6801    6.9482 C.ar    1  UNL1        0.0013
     14 C          61.5136   84.7190    6.3025 C.ar    1  UNL1        0.0001
     15 C          60.3591   85.3557    7.0180 C.ar    1  UNL1        0.0013
     16 C          60.5581   85.9535    8.3793 C.ar    1  UNL1        0.0153
     17 O          62.0132   88.5622   11.9796 O.3     1  UNL1       -0.4341
     18 C          62.0071   90.0522   12.1527 C.3     1  UNL1        0.2100
     19 C          65.8793   92.2622   12.7630 C.3     1  UNL1        0.0297
     20 C          65.2667   91.4951   13.8971 C.3     1  UNL1        0.0026
     21 C          63.9760   90.7584   13.6937 C.3     1  UNL1        0.0038
     22 C          63.2978   90.7888   12.3561 C.3     1  UNL1        0.0439
     23 C          63.9104   91.5560   11.2220 C.3     1  UNL1        0.0038
     24 C          65.2011   92.2926   11.4254 C.3     1  UNL1        0.0026
     25 C          67.1700   92.9989   12.9665 C.3     1  UNL1        0.1426
     26 O          68.3511   92.2920   13.5623 O.3     1  UNL1       -0.3478
     27 C          68.4700   92.1541   15.0512 C.3     1  UNL1        0.1835
     28 O          66.6171   93.0194   16.6537 O.co2   1  UNL1       -0.5466
     29 C          67.9254   93.2250   15.9494 C.2     1  UNL1        0.0801
     30 O          68.6890   94.5014   16.1433 O.co2   1  UNL1       -0.5466
@<TRIPOS>UNITY_ATOM_ATTR
28 1
charge -1
@<TRIPOS>BOND
     1    28    29   ar
     2    29    30   ar
     3    29    27    1
     4    27    26    1
     5    26    25    1
     6    19    25    1
     7    19    20    1
     8    20    21    1
     9    21    22    1
    10    22    18    1
    11    18    17    1
    12    17     1    1
    13     1     2    2
    14     1     3   am
    15     3    11    1
    16    11    12   ar
    17    12    13   ar
    18    13    14   ar
    19    14    15   ar
    20    15    16   ar
    21     3     4    1
    22     4     5   ar
    23     5     6   ar
    24     6     7   ar
    25     7     8   ar
    26     8     9    1
    27     8    10   ar
    28    22    23    1
    29    23    24    1
    30    24    19    1
    31    16    11   ar
    32    10     4   ar
