@<TRIPOS>MOLECULE
*****
 34 39 0 0 0
SMALL
GASTEIGER

@<TRIPOS>ATOM
      1 C          64.4863   85.9464   14.6961 C.3     1  UNL1        0.0749
      2 C          63.8140   85.5383   13.4188 C.3     1  UNL1        0.0444
      3 C          63.3393   84.1268   13.2388 C.ar    1  UNL1       -0.0101
      4 C          63.5369   83.1234   14.3361 C.ar    1  UNL1       -0.0091
      5 C          63.0622   81.7119   14.1561 C.ar    1  UNL1       -0.0032
      6 C          62.3899   81.3039   12.8788 C.ar    1  UNL1        0.0010
      7 C          62.1922   82.3073   11.7815 C.ar    1  UNL1        0.0142
      8 C          62.6669   83.7187   11.9615 C.ar    1  UNL1        0.0436
      9 C          64.2093   83.5314   15.6134 C.3     1  UNL1        0.0954
     10 N          64.6839   84.9429   15.7934 N.3     1  UNL1       -0.2934
     11 H          65.6871   84.8956   15.9720 H       1  UNL1        0.1236
     12 N          62.4693   84.7222   10.8642 N.pl3   1  UNL1       -0.3049
     13 C          61.4910   85.8453   11.0422 C.3     1  UNL1        0.1079
     14 C          61.2933   86.8487    9.9450 C.3     1  UNL1        0.0903
     15 N          62.0740   86.7292    8.6697 N.3     1  UNL1       -0.2946
     16 C          63.0523   85.6062    8.4917 C.3     1  UNL1        0.0903
     17 C          63.2500   84.6027    9.5890 C.3     1  UNL1        0.1079
     18 H          62.5994   87.5970    8.5636 H       1  UNL1        0.1233
     19 C          64.9610   87.3578   14.8761 C.3     1  UNL1        0.0886
     20 N          63.9739   88.4873   14.8723 N.3     1  UNL1       -0.2679
     21 C          66.2381   93.1453   13.3147 C.ar    1  UNL1        0.0203
     22 C          66.3781   92.2757   14.5288 C.ar    1  UNL1        0.0985
     23 N          65.5767   91.0129   14.6433 N.ar    1  UNL1       -0.2471
     24 C          64.6353   90.6198   13.5437 C.ar    1  UNL1        0.0695
     25 C          64.4954   91.4894   12.3296 C.ar    1  UNL1       -0.0073
     26 C          65.2968   92.7522   12.2151 C.ar    1  UNL1       -0.0015
     27 C          63.5539   91.0962   11.2299 C.3     1  UNL1        0.0277
     28 C          62.7525   89.8334   11.3444 C.3     1  UNL1        0.0065
     29 C          62.8926   88.9638   12.5586 C.3     1  UNL1        0.0224
     30 C          63.8339   89.3570   13.6582 C.3     1  UNL1        0.0978
     31 C          63.1269   88.7472   16.0827 C.3     1  UNL1        0.0724
     32 C          62.7611   87.6171   16.9988 C.3     1  UNL1        0.0160
     33 C          62.0473   86.3203   17.2412 C.3     1  UNL1        0.0014
     34 C          62.8415   86.9565   18.3431 C.3     1  UNL1        0.0014
@<TRIPOS>BOND
     1    21    22   ar
     2    22    23   ar
     3    23    24   ar
     4    24    25   ar
     5    25    26   ar
     6    25    27    1
     7    27    28    1
     8    28    29    1
     9    29    30    1
    10    30    20    1
    11    20    31    1
    12    31    32    1
    13    32    33    1
    14    33    34    1
    15    20    19    1
    16     1    19    1
    17     1     2    1
    18     2     3    1
    19     3     4   ar
    20     4     5   ar
    21     5     6   ar
    22     6     7   ar
    23     7     8   ar
    24     8    12    1
    25    12    13    1
    26    13    14    1
    27    14    15    1
    28    15    16    1
    29    16    17    1
    30     4     9    1
    31     9    10    1
    32    26    21   ar
    33    34    32    1
    34    10     1    1
    35    30    24    1
    36     8     3   ar
    37    17    12    1
    38    15    18    1
    39    10    11    1
@<TRIPOS>MOLECULE
*****
 34 39 0 0 0
SMALL
GASTEIGER

@<TRIPOS>ATOM
      1 C          63.0186   90.9234   11.5043 C.3     1  UNL1        0.0749
      2 C          64.2748   91.7401   11.4336 C.3     1  UNL1        0.0444
      3 C          65.1396   91.8926   12.6498 C.ar    1  UNL1       -0.0101
      4 C          64.7482   91.2284   13.9365 C.ar    1  UNL1       -0.0091
      5 C          65.6130   91.3810   15.1525 C.ar    1  UNL1       -0.0032
      6 C          66.8692   92.1977   15.0819 C.ar    1  UNL1        0.0010
      7 C          67.2606   92.8618   13.7952 C.ar    1  UNL1        0.0142
      8 C          66.3958   92.7093   12.5791 C.ar    1  UNL1        0.0436
      9 C          63.4920   90.4117   14.0071 C.3     1  UNL1        0.0954
     10 N          62.6272   90.2592   12.7911 N.3     1  UNL1       -0.2934
     11 H          61.7050   90.6176   13.0388 H       1  UNL1        0.1236
     12 N          66.7872   93.3735   11.2923 N.pl3   1  UNL1       -0.3049
     13 C          67.5688   92.6122   10.2629 C.3     1  UNL1        0.1079
     14 C          67.9602   93.2763    8.9762 C.3     1  UNL1        0.0903
     15 N          67.5700   94.7017    8.7188 N.3     1  UNL1       -0.2946
     16 C          66.7885   95.4629    9.7482 C.3     1  UNL1        0.0903
     17 C          66.3971   94.7988   11.0350 C.3     1  UNL1        0.1079
     18 H          67.0128   94.7048    7.8644 H       1  UNL1        0.1233
     19 C          62.1539   90.7708   10.2882 C.3     1  UNL1        0.0886
     20 N          60.8665   90.0057   10.3746 N.3     1  UNL1       -0.2679
     21 C          62.6480   84.9849   11.3059 C.ar    1  UNL1        0.0203
     22 C          62.7941   86.2911   12.0287 C.ar    1  UNL1        0.0985
     23 N          62.1516   87.5293   11.4773 N.ar    1  UNL1       -0.2471
     24 C          61.3629   87.4613   10.2032 C.ar    1  UNL1        0.0695
     25 C          61.2169   86.1551    9.4804 C.ar    1  UNL1       -0.0073
     26 C          61.8594   84.9169   10.0318 C.ar    1  UNL1       -0.0015
     27 C          60.4282   86.0870    8.2063 C.3     1  UNL1        0.0277
     28 C          59.7857   87.3252    7.6549 C.3     1  UNL1        0.0065
     29 C          59.9318   88.6315    8.3777 C.3     1  UNL1        0.0224
     30 C          60.7204   88.6995    9.6518 C.3     1  UNL1        0.0978
     31 C          59.7252   90.5470   11.1837 C.3     1  UNL1        0.0724
     32 C          59.0767   89.6916   12.2315 C.3     1  UNL1        0.0160
     33 C          59.1370   88.9907   13.5563 C.3     1  UNL1        0.0014
     34 C          57.8933   88.9111   12.7216 C.3     1  UNL1        0.0014
@<TRIPOS>BOND
     1    21    22   ar
     2    22    23   ar
     3    23    24   ar
     4    24    25   ar
     5    25    26   ar
     6    25    27    1
     7    27    28    1
     8    28    29    1
     9    29    30    1
    10    30    20    1
    11    20    31    1
    12    31    32    1
    13    32    33    1
    14    33    34    1
    15    20    19    1
    16     1    19    1
    17     1     2    1
    18     2     3    1
    19     3     4   ar
    20     4     5   ar
    21     5     6   ar
    22     6     7   ar
    23     7     8   ar
    24     8    12    1
    25    12    13    1
    26    13    14    1
    27    14    15    1
    28    15    16    1
    29    16    17    1
    30     4     9    1
    31     9    10    1
    32    26    21   ar
    33    34    32    1
    34    10     1    1
    35    30    24    1
    36     8     3   ar
    37    17    12    1
    38    15    18    1
    39    10    11    1
@<TRIPOS>MOLECULE
*****
 34 39 0 0 0
SMALL
GASTEIGER

@<TRIPOS>ATOM
      1 C          63.1820   89.8405   11.9537 C.3     1  UNL1        0.0749
      2 C          64.2254   90.9160   11.8861 C.3     1  UNL1        0.0444
      3 C          64.8120   91.4722   13.1497 C.ar    1  UNL1       -0.0101
      4 C          64.3552   90.9530   14.4807 C.ar    1  UNL1       -0.0091
      5 C          64.9419   91.5092   15.7442 C.ar    1  UNL1       -0.0032
      6 C          65.9853   92.5847   15.6766 C.ar    1  UNL1        0.0010
      7 C          66.4421   93.1039   14.3456 C.ar    1  UNL1        0.0142
      8 C          65.8555   92.5477   13.0821 C.ar    1  UNL1        0.0436
      9 C          63.3118   89.8775   14.5483 C.3     1  UNL1        0.0954
     10 N          62.7252   89.3212   13.2848 N.3     1  UNL1       -0.2934
     11 H          61.7186   89.4794   13.3329 H       1  UNL1        0.1236
     12 N          66.3123   93.0669   11.7510 N.pl3   1  UNL1       -0.3049
     13 C          67.3008   92.2832   10.9394 C.3     1  UNL1        0.1079
     14 C          67.7576   92.8024    9.6083 C.3     1  UNL1        0.0903
     15 N          67.2259   94.1053    9.0888 N.3     1  UNL1       -0.2946
     16 C          66.2375   94.8890    9.9005 C.3     1  UNL1        0.0903
     17 C          65.7807   94.3698   11.2316 C.3     1  UNL1        0.1079
     18 H          66.7793   93.9052    8.1939 H       1  UNL1        0.1233
     19 C          62.5953   89.2842   10.6902 C.3     1  UNL1        0.0886
     20 N          61.7567   88.0413   10.7364 N.3     1  UNL1       -0.2679
     21 C          63.8828   83.6913   13.1461 C.ar    1  UNL1        0.0203
     22 C          63.3264   84.9906   13.6482 C.ar    1  UNL1        0.0985
     23 N          62.8032   86.0075   12.6776 N.ar    1  UNL1       -0.2471
     24 C          62.8364   85.7252   11.2048 C.ar    1  UNL1        0.0695
     25 C          63.3928   84.4259   10.7027 C.ar    1  UNL1       -0.0073
     26 C          63.9161   83.4090   11.6733 C.ar    1  UNL1       -0.0015
     27 C          63.4260   84.1435    9.2298 C.3     1  UNL1        0.0277
     28 C          62.9028   85.1604    8.2592 C.3     1  UNL1        0.0065
     29 C          62.3463   86.4597    8.7614 C.3     1  UNL1        0.0224
     30 C          62.3131   86.7421   10.2342 C.3     1  UNL1        0.0978
     31 C          60.3616   88.0978   11.2847 C.3     1  UNL1        0.0724
     32 C          59.6945   89.4236   11.5025 C.3     1  UNL1        0.0160
     33 C          58.6488   90.2552   12.1843 C.3     1  UNL1        0.0014
     34 C          59.5849   90.8882   11.1980 C.3     1  UNL1        0.0014
@<TRIPOS>BOND
     1    21    22   ar
     2    22    23   ar
     3    23    24   ar
     4    24    25   ar
     5    25    26   ar
     6    25    27    1
     7    27    28    1
     8    28    29    1
     9    29    30    1
    10    30    20    1
    11    20    31    1
    12    31    32    1
    13    32    33    1
    14    33    34    1
    15    20    19    1
    16     1    19    1
    17     1     2    1
    18     2     3    1
    19     3     4   ar
    20     4     5   ar
    21     5     6   ar
    22     6     7   ar
    23     7     8   ar
    24     8    12    1
    25    12    13    1
    26    13    14    1
    27    14    15    1
    28    15    16    1
    29    16    17    1
    30     4     9    1
    31     9    10    1
    32    26    21   ar
    33    34    32    1
    34    10     1    1
    35    30    24    1
    36     8     3   ar
    37    17    12    1
    38    15    18    1
    39    10    11    1
@<TRIPOS>MOLECULE
*****
 34 39 0 0 0
SMALL
GASTEIGER

@<TRIPOS>ATOM
      1 C          61.5426   89.0717   11.0643 C.3     1  UNL1        0.0749
      2 C          62.3550   89.0554   12.3252 C.3     1  UNL1        0.0444
      3 C          63.4539   90.0572   12.5223 C.ar    1  UNL1       -0.0101
      4 C          63.7404   91.0753   11.4587 C.ar    1  UNL1       -0.0091
      5 C          64.8392   92.0771   11.6559 C.ar    1  UNL1       -0.0032
      6 C          65.6516   92.0608   12.9167 C.ar    1  UNL1        0.0010
      7 C          65.3651   91.0427   13.9804 C.ar    1  UNL1        0.0142
      8 C          64.2663   90.0409   13.7832 C.ar    1  UNL1        0.0436
      9 C          62.9280   91.0916   10.1978 C.3     1  UNL1        0.0954
     10 N          61.8291   90.0898   10.0006 N.3     1  UNL1       -0.2934
     11 H          62.0514   89.5725    9.1501 H       1  UNL1        0.1236
     12 N          63.9797   89.0228   14.8469 N.pl3   1  UNL1       -0.3049
     13 C          64.4078   87.5979   14.6559 C.3     1  UNL1        0.1079
     14 C          64.1213   86.5798   15.7195 C.3     1  UNL1        0.0903
     15 N          63.4067   86.9865   16.9742 N.3     1  UNL1       -0.2946
     16 C          62.9787   88.4114   17.1651 C.3     1  UNL1        0.0903
     17 C          63.2652   89.4296   16.1014 C.3     1  UNL1        0.1079
     18 H          64.0251   86.7580   17.7525 H       1  UNL1        0.1233
     19 C          60.4438   88.0699   10.8671 C.3     1  UNL1        0.0886
     20 N          60.4205   87.2150    9.6347 N.3     1  UNL1       -0.2679
     21 C          63.2855   84.0052   12.9117 C.ar    1  UNL1        0.0203
     22 C          62.2108   85.0273   13.1359 C.ar    1  UNL1        0.0985
     23 N          61.6140   85.7565   11.9689 N.ar    1  UNL1       -0.2471
     24 C          62.0920   85.4637   10.5776 C.ar    1  UNL1        0.0695
     25 C          63.1667   84.4417   10.3534 C.ar    1  UNL1       -0.0073
     26 C          63.7635   83.7125   11.5204 C.ar    1  UNL1       -0.0015
     27 C          63.6448   84.1489    8.9620 C.3     1  UNL1        0.0277
     28 C          63.0480   84.8781    7.7949 C.3     1  UNL1        0.0065
     29 C          61.9732   85.9002    8.0192 C.3     1  UNL1        0.0224
     30 C          61.4952   86.1930    9.4105 C.3     1  UNL1        0.0978
     31 C          59.3224   87.3822    8.6266 C.3     1  UNL1        0.0724
     32 C          59.3609   88.5275    7.6587 C.3     1  UNL1        0.0160
     33 C          59.9039   89.8645    7.2490 C.3     1  UNL1        0.0014
     34 C          58.8846   89.1743    6.3919 C.3     1  UNL1        0.0014
@<TRIPOS>BOND
     1    21    22   ar
     2    22    23   ar
     3    23    24   ar
     4    24    25   ar
     5    25    26   ar
     6    25    27    1
     7    27    28    1
     8    28    29    1
     9    29    30    1
    10    30    20    1
    11    20    31    1
    12    31    32    1
    13    32    33    1
    14    33    34    1
    15    20    19    1
    16     1    19    1
    17     1     2    1
    18     2     3    1
    19     3     4   ar
    20     4     5   ar
    21     5     6   ar
    22     6     7   ar
    23     7     8   ar
    24     8    12    1
    25    12    13    1
    26    13    14    1
    27    14    15    1
    28    15    16    1
    29    16    17    1
    30     4     9    1
    31     9    10    1
    32    26    21   ar
    33    34    32    1
    34    10     1    1
    35    30    24    1
    36     8     3   ar
    37    17    12    1
    38    15    18    1
    39    10    11    1
@<TRIPOS>MOLECULE
*****
 34 39 0 0 0
SMALL
GASTEIGER

@<TRIPOS>ATOM
      1 C          62.7721   90.0343   10.7417 C.3     1  UNL1        0.0749
      2 C          63.2413   89.7860   12.1446 C.3     1  UNL1        0.0444
      3 C          64.2265   90.7202   12.7824 C.ar    1  UNL1       -0.0101
      4 C          64.7425   91.9026   12.0172 C.ar    1  UNL1       -0.0091
      5 C          65.7277   92.8367   12.6550 C.ar    1  UNL1       -0.0032
      6 C          66.1969   92.5884   14.0579 C.ar    1  UNL1        0.0010
      7 C          65.6809   91.4060   14.8231 C.ar    1  UNL1        0.0142
      8 C          64.6957   90.4718   14.1853 C.ar    1  UNL1        0.0436
      9 C          64.2733   92.1509   10.6143 C.3     1  UNL1        0.0954
     10 N          63.2881   91.2168    9.9765 N.3     1  UNL1       -0.2934
     11 H          63.7317   90.8515    9.1339 H       1  UNL1        0.1236
     12 N          64.1796   89.2893   14.9505 N.pl3   1  UNL1       -0.3049
     13 C          63.2735   89.4953   16.1280 C.3     1  UNL1        0.1079
     14 C          62.7574   88.3129   16.8931 C.3     1  UNL1        0.0903
     15 N          63.1475   86.9244   16.4808 N.3     1  UNL1       -0.2946
     16 C          64.0537   86.7184   15.3033 C.3     1  UNL1        0.0903
     17 C          64.5697   87.9009   14.5382 C.3     1  UNL1        0.1079
     18 H          62.2825   86.4235   16.2778 H       1  UNL1        0.1233
     19 C          61.7869   89.1002   10.1040 C.3     1  UNL1        0.0886
     20 N          61.5018   87.7680   10.7316 N.3     1  UNL1       -0.2679
     21 C          63.2320   83.1710   12.9955 C.ar    1  UNL1        0.0203
     22 C          62.5705   84.4077   13.5275 C.ar    1  UNL1        0.0985
     23 N          62.2142   85.5278   12.5955 N.ar    1  UNL1       -0.2471
     24 C          62.5195   85.4112   11.1316 C.ar    1  UNL1        0.0695
     25 C          63.1810   84.1746   10.5996 C.ar    1  UNL1       -0.0073
     26 C          63.5372   83.0545   11.5315 C.ar    1  UNL1       -0.0015
     27 C          63.4863   84.0580    9.1356 C.3     1  UNL1        0.0277
     28 C          63.1301   85.1780    8.2036 C.3     1  UNL1        0.0065
     29 C          62.4686   86.4147    8.7357 C.3     1  UNL1        0.0224
     30 C          62.1633   86.5313   10.1996 C.3     1  UNL1        0.0978
     31 C          60.5552   87.6724   11.8913 C.3     1  UNL1        0.0724
     32 C          59.5461   88.7570   12.1270 C.3     1  UNL1        0.0160
     33 C          59.0897   90.1721   11.9291 C.3     1  UNL1        0.0014
     34 C          58.2546   89.2202   12.7331 C.3     1  UNL1        0.0014
@<TRIPOS>BOND
     1    21    22   ar
     2    22    23   ar
     3    23    24   ar
     4    24    25   ar
     5    25    26   ar
     6    25    27    1
     7    27    28    1
     8    28    29    1
     9    29    30    1
    10    30    20    1
    11    20    31    1
    12    31    32    1
    13    32    33    1
    14    33    34    1
    15    20    19    1
    16     1    19    1
    17     1     2    1
    18     2     3    1
    19     3     4   ar
    20     4     5   ar
    21     5     6   ar
    22     6     7   ar
    23     7     8   ar
    24     8    12    1
    25    12    13    1
    26    13    14    1
    27    14    15    1
    28    15    16    1
    29    16    17    1
    30     4     9    1
    31     9    10    1
    32    26    21   ar
    33    34    32    1
    34    10     1    1
    35    30    24    1
    36     8     3   ar
    37    17    12    1
    38    15    18    1
    39    10    11    1
@<TRIPOS>MOLECULE
*****
 34 39 0 0 0
SMALL
GASTEIGER

@<TRIPOS>ATOM
      1 C          61.4771   89.5778   11.9338 C.3     1  UNL1        0.0749
      2 C          61.7241   88.2058   11.3800 C.3     1  UNL1        0.0444
      3 C          61.0976   87.7980   10.0795 C.ar    1  UNL1       -0.0101
      4 C          60.2242   88.7621    9.3328 C.ar    1  UNL1       -0.0091
      5 C          59.5977   88.3542    8.0324 C.ar    1  UNL1       -0.0032
      6 C          59.8447   86.9822    7.4787 C.ar    1  UNL1        0.0010
      7 C          60.7182   86.0181    8.2254 C.ar    1  UNL1        0.0142
      8 C          61.3446   86.4260    9.5258 C.ar    1  UNL1        0.0436
      9 C          59.9772   90.1341    9.8865 C.3     1  UNL1        0.0954
     10 N          60.6036   90.5420   11.1870 N.3     1  UNL1       -0.2934
     11 H          59.8406   90.7951   11.8148 H       1  UNL1        0.1236
     12 N          62.2181   85.4618   10.2726 N.pl3   1  UNL1       -0.3049
     13 C          62.1134   85.3563   11.7652 C.3     1  UNL1        0.1079
     14 C          62.9868   84.3923   12.5120 C.3     1  UNL1        0.0903
     15 N          63.9649   83.5337   11.7661 N.3     1  UNL1       -0.2946
     16 C          64.0696   83.6392   10.2735 C.3     1  UNL1        0.0903
     17 C          63.1961   84.6033    9.5267 C.3     1  UNL1        0.1079
     18 H          63.7265   82.5646   11.9768 H       1  UNL1        0.1233
     19 C          62.1035   89.9858   13.2342 C.3     1  UNL1        0.0886
     20 N          63.5966   89.9930   13.3778 N.3     1  UNL1       -0.2679
     21 C          67.1798   93.4900   15.4228 C.ar    1  UNL1        0.0203
     22 C          66.3758   92.3652   16.0044 C.ar    1  UNL1        0.0985
     23 N          65.4494   91.5744   15.1288 N.ar    1  UNL1       -0.2471
     24 C          65.3270   91.9086   13.6717 C.ar    1  UNL1        0.0695
     25 C          66.1309   93.0335   13.0901 C.ar    1  UNL1       -0.0073
     26 C          67.0573   93.8242   13.9656 C.ar    1  UNL1       -0.0015
     27 C          66.0085   93.3677   11.6329 C.3     1  UNL1        0.0277
     28 C          65.0821   92.5769   10.7573 C.3     1  UNL1        0.0065
     29 C          64.2781   91.4520   11.3390 C.3     1  UNL1        0.0224
     30 C          64.4006   91.1179   12.7962 C.3     1  UNL1        0.0978
     31 C          64.2858   88.8753   14.1030 C.3     1  UNL1        0.0724
     32 C          63.7662   88.4102   15.4311 C.3     1  UNL1        0.0160
     33 C          63.1589   88.7164   16.7680 C.3     1  UNL1        0.0014
     34 C          63.4736   87.2982   16.3943 C.3     1  UNL1        0.0014
@<TRIPOS>BOND
     1    21    22   ar
     2    22    23   ar
     3    23    24   ar
     4    24    25   ar
     5    25    26   ar
     6    25    27    1
     7    27    28    1
     8    28    29    1
     9    29    30    1
    10    30    20    1
    11    20    31    1
    12    31    32    1
    13    32    33    1
    14    33    34    1
    15    20    19    1
    16     1    19    1
    17     1     2    1
    18     2     3    1
    19     3     4   ar
    20     4     5   ar
    21     5     6   ar
    22     6     7   ar
    23     7     8   ar
    24     8    12    1
    25    12    13    1
    26    13    14    1
    27    14    15    1
    28    15    16    1
    29    16    17    1
    30     4     9    1
    31     9    10    1
    32    26    21   ar
    33    34    32    1
    34    10     1    1
    35    30    24    1
    36     8     3   ar
    37    17    12    1
    38    15    18    1
    39    10    11    1
@<TRIPOS>MOLECULE
*****
 34 39 0 0 0
SMALL
GASTEIGER

@<TRIPOS>ATOM
      1 C          63.8036   91.5848   10.9035 C.3     1  UNL1        0.0749
      2 C          64.0621   91.1344   12.3107 C.3     1  UNL1        0.0444
      3 C          65.0546   91.8686   13.1628 C.ar    1  UNL1       -0.0101
      4 C          65.7885   93.0531   12.6077 C.ar    1  UNL1       -0.0091
      5 C          66.7809   93.7872   13.4598 C.ar    1  UNL1       -0.0032
      6 C          67.0394   93.3368   14.8671 C.ar    1  UNL1        0.0010
      7 C          66.3055   92.1523   15.4222 C.ar    1  UNL1        0.0142
      8 C          65.3131   91.4181   14.5701 C.ar    1  UNL1        0.0436
      9 C          65.5300   93.5035   11.2005 C.3     1  UNL1        0.0954
     10 N          64.5376   92.7694   10.3484 N.3     1  UNL1       -0.2934
     11 H          65.0417   92.4435    9.5237 H       1  UNL1        0.1236
     12 N          64.5792   90.2335   15.1252 N.pl3   1  UNL1       -0.3049
     13 C          63.6283   90.4103   16.2717 C.3     1  UNL1        0.1079
     14 C          62.8943   89.2258   16.8268 C.3     1  UNL1        0.0903
     15 N          63.1113   87.8644   16.2354 N.3     1  UNL1       -0.2946
     16 C          64.0621   87.6877   15.0888 C.3     1  UNL1        0.0903
     17 C          64.7961   88.8723   14.5337 C.3     1  UNL1        0.1079
     18 H          62.2007   87.5334   15.9165 H       1  UNL1        0.1233
     19 C          62.8112   90.8506   10.0514 C.3     1  UNL1        0.0886
     20 N          61.7655   89.9873   10.6927 N.3     1  UNL1       -0.2679
     21 C          59.2681   86.7924    7.1143 C.ar    1  UNL1        0.0203
     22 C          59.2740   88.2719    7.3612 C.ar    1  UNL1        0.0985
     23 N          60.1045   88.8437    8.4717 N.ar    1  UNL1       -0.2471
     24 C          60.9292   87.9360    9.3354 C.ar    1  UNL1        0.0695
     25 C          60.9233   86.4565    9.0885 C.ar    1  UNL1       -0.0073
     26 C          60.0928   85.8847    7.9780 C.ar    1  UNL1       -0.0015
     27 C          61.7480   85.5487    9.9522 C.3     1  UNL1        0.0277
     28 C          62.5785   86.1206   11.0627 C.3     1  UNL1        0.0065
     29 C          62.5843   87.6002   11.3096 C.3     1  UNL1        0.0224
     30 C          61.7597   88.5078   10.4459 C.3     1  UNL1        0.0978
     31 C          60.7257   90.6036   11.5810 C.3     1  UNL1        0.0724
     32 C          59.6281   89.7551   12.1514 C.3     1  UNL1        0.0160
     33 C          58.6637   89.4507   13.2593 C.3     1  UNL1        0.0014
     34 C          58.6914   88.5897   12.0314 C.3     1  UNL1        0.0014
@<TRIPOS>BOND
     1    21    22   ar
     2    22    23   ar
     3    23    24   ar
     4    24    25   ar
     5    25    26   ar
     6    25    27    1
     7    27    28    1
     8    28    29    1
     9    29    30    1
    10    30    20    1
    11    20    31    1
    12    31    32    1
    13    32    33    1
    14    33    34    1
    15    20    19    1
    16     1    19    1
    17     1     2    1
    18     2     3    1
    19     3     4   ar
    20     4     5   ar
    21     5     6   ar
    22     6     7   ar
    23     7     8   ar
    24     8    12    1
    25    12    13    1
    26    13    14    1
    27    14    15    1
    28    15    16    1
    29    16    17    1
    30     4     9    1
    31     9    10    1
    32    26    21   ar
    33    34    32    1
    34    10     1    1
    35    30    24    1
    36     8     3   ar
    37    17    12    1
    38    15    18    1
    39    10    11    1
@<TRIPOS>MOLECULE
*****
 34 39 0 0 0
SMALL
GASTEIGER

@<TRIPOS>ATOM
      1 C          63.3337   88.9822   12.7529 C.3     1  UNL1        0.0749
      2 C          63.1325   87.6651   12.0637 C.3     1  UNL1        0.0444
      3 C          62.0218   87.5012   11.0689 C.ar    1  UNL1       -0.0101
      4 C          61.1124   88.6542   10.7633 C.ar    1  UNL1       -0.0091
      5 C          60.0017   88.4902    9.7686 C.ar    1  UNL1       -0.0032
      6 C          59.8005   87.1732    9.0794 C.ar    1  UNL1        0.0010
      7 C          60.7099   86.0202    9.3850 C.ar    1  UNL1        0.0142
      8 C          61.8205   86.1842   10.3797 C.ar    1  UNL1        0.0436
      9 C          61.3136   89.9713   11.4525 C.3     1  UNL1        0.0954
     10 N          62.4242   90.1352   12.4472 N.3     1  UNL1       -0.2934
     11 H          61.9915   90.4107   13.3289 H       1  UNL1        0.1236
     12 N          62.7300   85.0311   10.6854 N.pl3   1  UNL1       -0.3049
     13 C          62.9019   84.5663   12.1011 C.3     1  UNL1        0.1079
     14 C          63.8113   83.4133   12.4068 C.3     1  UNL1        0.0903
     15 N          64.5489   82.7250   11.2966 N.3     1  UNL1       -0.2946
     16 C          64.3771   83.1898    9.8809 C.3     1  UNL1        0.0903
     17 C          63.4676   84.3429    9.5752 C.3     1  UNL1        0.1079
     18 H          64.2690   81.7445   11.3207 H       1  UNL1        0.1233
     19 C          64.4443   89.1461   13.7476 C.3     1  UNL1        0.0886
     20 N          64.3652   90.2224   14.7895 N.3     1  UNL1       -0.2679
     21 C          65.6524   93.6119   10.7764 C.ar    1  UNL1        0.0203
     22 C          64.7660   92.4058   10.8751 C.ar    1  UNL1        0.0985
     23 N          64.6324   91.6780   12.1799 N.ar    1  UNL1       -0.2471
     24 C          65.3852   92.1563   13.3860 C.ar    1  UNL1        0.0695
     25 C          66.2715   93.3623   13.2872 C.ar    1  UNL1       -0.0073
     26 C          66.4051   94.0901   11.9824 C.ar    1  UNL1       -0.0015
     27 C          67.0244   93.8406   14.4933 C.3     1  UNL1        0.0277
     28 C          66.8908   93.1128   15.7981 C.3     1  UNL1        0.0065
     29 C          66.0044   91.9067   15.8968 C.3     1  UNL1        0.0224
     30 C          65.2516   91.4285   14.6907 C.3     1  UNL1        0.0978
     31 C          63.3997   90.0926   15.9301 C.3     1  UNL1        0.0724
     32 C          63.1940   88.7618   16.5909 C.3     1  UNL1        0.0160
     33 C          63.1984   87.2633   16.5232 C.3     1  UNL1        0.0014
     34 C          62.8336   87.9552   17.8031 C.3     1  UNL1        0.0014
@<TRIPOS>BOND
     1    21    22   ar
     2    22    23   ar
     3    23    24   ar
     4    24    25   ar
     5    25    26   ar
     6    25    27    1
     7    27    28    1
     8    28    29    1
     9    29    30    1
    10    30    20    1
    11    20    31    1
    12    31    32    1
    13    32    33    1
    14    33    34    1
    15    20    19    1
    16     1    19    1
    17     1     2    1
    18     2     3    1
    19     3     4   ar
    20     4     5   ar
    21     5     6   ar
    22     6     7   ar
    23     7     8   ar
    24     8    12    1
    25    12    13    1
    26    13    14    1
    27    14    15    1
    28    15    16    1
    29    16    17    1
    30     4     9    1
    31     9    10    1
    32    26    21   ar
    33    34    32    1
    34    10     1    1
    35    30    24    1
    36     8     3   ar
    37    17    12    1
    38    15    18    1
    39    10    11    1
@<TRIPOS>MOLECULE
*****
 34 39 0 0 0
SMALL
GASTEIGER

@<TRIPOS>ATOM
      1 C          61.6862   87.2261   10.7632 C.3     1  UNL1        0.0749
      2 C          62.2790   86.3248   11.8054 C.3     1  UNL1        0.0444
      3 C          63.0139   85.0837   11.3935 C.ar    1  UNL1       -0.0101
      4 C          63.1560   84.7439    9.9394 C.ar    1  UNL1       -0.0091
      5 C          63.8908   83.5029    9.5276 C.ar    1  UNL1       -0.0032
      6 C          64.4837   82.6016   10.5698 C.ar    1  UNL1        0.0010
      7 C          64.3417   82.9414   12.0238 C.ar    1  UNL1        0.0142
      8 C          63.6068   84.1824   12.4357 C.ar    1  UNL1        0.0436
      9 C          62.5631   85.6452    8.8972 C.3     1  UNL1        0.0954
     10 N          61.8282   86.8863    9.3090 N.3     1  UNL1       -0.2934
     11 H          60.8839   86.8084    8.9313 H       1  UNL1        0.1236
     12 N          63.4648   84.5223   13.8898 N.pl3   1  UNL1       -0.3049
     13 C          64.3821   85.5294   14.5177 C.3     1  UNL1        0.1079
     14 C          64.2401   85.8692   15.9717 C.3     1  UNL1        0.0903
     15 N          63.1807   85.2020   16.7980 N.3     1  UNL1       -0.2946
     16 C          62.2634   84.1950   16.1701 C.3     1  UNL1        0.0903
     17 C          62.4054   83.8551   14.7160 C.3     1  UNL1        0.1079
     18 H          62.5903   85.9437   17.1745 H       1  UNL1        0.1233
     19 C          60.9513   88.4672   11.1750 C.3     1  UNL1        0.0886
     20 N          61.2638   89.7777   10.5154 N.3     1  UNL1       -0.2679
     21 C          64.0419   90.3355   15.1220 C.ar    1  UNL1        0.0203
     22 C          62.8045   89.5792   14.7388 C.ar    1  UNL1        0.0985
     23 N          62.2910   89.6454   13.3310 N.ar    1  UNL1       -0.2471
     24 C          63.0148   90.4678   12.3065 C.ar    1  UNL1        0.0695
     25 C          64.2521   91.2240   12.6897 C.ar    1  UNL1       -0.0073
     26 C          64.7657   91.1579   14.0975 C.ar    1  UNL1       -0.0015
     27 C          64.9760   92.0465   11.6652 C.3     1  UNL1        0.0277
     28 C          64.4624   92.1127   10.2574 C.3     1  UNL1        0.0065
     29 C          63.2250   91.3563    9.8741 C.3     1  UNL1        0.0224
     30 C          62.5012   90.5339   10.8987 C.3     1  UNL1        0.0978
     31 C          60.3390   90.3318    9.4725 C.3     1  UNL1        0.0724
     32 C          59.8470   89.4512    8.3622 C.3     1  UNL1        0.0160
     33 C          59.3222   88.1281    7.8891 C.3     1  UNL1        0.0014
     34 C          59.5195   89.2493    6.9124 C.3     1  UNL1        0.0014
@<TRIPOS>BOND
     1    21    22   ar
     2    22    23   ar
     3    23    24   ar
     4    24    25   ar
     5    25    26   ar
     6    25    27    1
     7    27    28    1
     8    28    29    1
     9    29    30    1
    10    30    20    1
    11    20    31    1
    12    31    32    1
    13    32    33    1
    14    33    34    1
    15    20    19    1
    16     1    19    1
    17     1     2    1
    18     2     3    1
    19     3     4   ar
    20     4     5   ar
    21     5     6   ar
    22     6     7   ar
    23     7     8   ar
    24     8    12    1
    25    12    13    1
    26    13    14    1
    27    14    15    1
    28    15    16    1
    29    16    17    1
    30     4     9    1
    31     9    10    1
    32    26    21   ar
    33    34    32    1
    34    10     1    1
    35    30    24    1
    36     8     3   ar
    37    17    12    1
    38    15    18    1
    39    10    11    1
