@<TRIPOS>MOLECULE
*****
 26 29 0 0 0
SMALL
GASTEIGER

@<TRIPOS>ATOM
      1 O          64.8692   88.7316   14.9363 O.3     1  UNL1       -0.3786
      2 C          64.1489   89.2970   13.7482 C.3     1  UNL1        0.1254
      3 C          63.6044   90.3021   12.7771 C.3     1  UNL1        0.0357
      4 C          62.8041   89.8445   11.5939 C.3     1  UNL1        0.0078
      5 C          62.5484   88.3818   11.3818 C.3     1  UNL1        0.0262
      6 C          63.0929   87.3766   12.3529 C.ar    1  UNL1       -0.0237
      7 C          62.8372   85.9139   12.1407 C.ar    1  UNL1       -0.0045
      8 C          63.3817   84.9087   13.1118 C.ar    1  UNL1       -0.0003
      9 C          64.1821   85.3663   14.2951 C.ar    1  UNL1       -0.0003
     10 C          64.4378   86.8291   14.5073 C.ar    1  UNL1       -0.0020
     11 C          63.8932   87.8342   13.5361 C.ar    1  UNL1        0.0016
     12 H          65.2602   89.4545   15.4515 H       1  UNL1        0.2111
     13 C          63.1260   83.4460   12.8997 C.ar    1  UNL1        0.0024
     14 C          62.7112   82.5821   14.0536 C.ar    1  UNL1        0.0025
     15 C          62.4554   81.1194   13.8414 C.ar    1  UNL1        0.0320
     16 C          62.6145   80.5205   12.4754 C.ar    1  UNL1        0.1674
     17 F          62.3588   79.0578   12.2633 F       1  UNL1       -0.2018
     18 C          63.0294   81.3845   11.3214 C.ar    1  UNL1        0.1674
     19 F          63.1885   80.7857    9.9554 F       1  UNL1       -0.2018
     20 C          63.2851   82.8472   11.5336 C.ar    1  UNL1        0.0320
     21 C          64.6549   90.5633   14.3730 C.ar    1  UNL1        0.0086
     22 C          65.6395   91.4220   13.6361 C.ar    1  UNL1        0.0190
     23 C          66.1453   92.6884   14.2610 C.ar    1  UNL1        0.0986
     24 N          65.6666   93.0960   15.6229 N.ar    1  UNL1       -0.2423
     25 C          64.6820   92.2372   16.3598 C.ar    1  UNL1        0.0986
     26 C          64.1761   90.9709   15.7349 C.ar    1  UNL1        0.0190
@<TRIPOS>BOND
     1     1     2    1
     2     2    21    1
     3    21    22   ar
     4    22    23   ar
     5    23    24   ar
     6    24    25   ar
     7    25    26   ar
     8     2     3    1
     9     3     4    1
    10     4     5    1
    11     5     6    1
    12     6     7   ar
    13     7     8   ar
    14     8    13    1
    15    13    14   ar
    16    14    15   ar
    17    15    16   ar
    18    16    17    1
    19    16    18   ar
    20    18    19    1
    21    18    20   ar
    22     8     9   ar
    23     9    10   ar
    24    10    11   ar
    25    11     2    1
    26    26    21   ar
    27    11     6   ar
    28    20    13   ar
    29     1    12    1
@<TRIPOS>MOLECULE
*****
 26 29 0 0 0
SMALL
GASTEIGER

@<TRIPOS>ATOM
      1 O          64.7321   88.4980   15.0599 O.3     1  UNL1       -0.3786
      2 C          64.0447   89.1797   13.9142 C.3     1  UNL1        0.1254
      3 C          63.5142   90.2772   13.0401 C.3     1  UNL1        0.0357
      4 C          62.7704   89.9406   11.7818 C.3     1  UNL1        0.0078
      5 C          62.5570   88.5065   11.3976 C.3     1  UNL1        0.0262
      6 C          63.0875   87.4089   12.2716 C.ar    1  UNL1       -0.0237
      7 C          62.8741   85.9748   11.8874 C.ar    1  UNL1       -0.0045
      8 C          63.4045   84.8772   12.7614 C.ar    1  UNL1       -0.0003
      9 C          64.1484   85.2138   14.0198 C.ar    1  UNL1       -0.0003
     10 C          64.3618   86.6480   14.4040 C.ar    1  UNL1       -0.0020
     11 C          63.8313   87.7455   13.5299 C.ar    1  UNL1        0.0016
     12 H          65.0864   89.1656   15.6679 H       1  UNL1        0.2111
     13 C          63.1911   83.4431   12.3771 C.ar    1  UNL1        0.0024
     14 C          63.6643   82.9456   11.0435 C.ar    1  UNL1        0.0025
     15 C          63.4509   81.5114   10.6593 C.ar    1  UNL1        0.0320
     16 C          62.7644   80.5747   11.6086 C.ar    1  UNL1        0.1674
     17 F          62.5510   79.1406   11.2244 F       1  UNL1       -0.2018
     18 C          62.2912   81.0722   12.9423 C.ar    1  UNL1        0.1674
     19 F          61.6046   80.1356   13.8916 F       1  UNL1       -0.2018
     20 C          62.5045   82.5064   13.3266 C.ar    1  UNL1        0.0320
     21 C          64.4968   90.3770   14.6964 C.ar    1  UNL1        0.0086
     22 C          63.7669   90.7772   15.9442 C.ar    1  UNL1        0.0190
     23 C          64.2192   91.9746   16.7264 C.ar    1  UNL1        0.0986
     24 N          65.4014   92.7718   16.2607 N.ar    1  UNL1       -0.2423
     25 C          66.1313   92.3716   15.0129 C.ar    1  UNL1        0.0986
     26 C          65.6791   91.1743   14.2307 C.ar    1  UNL1        0.0190
@<TRIPOS>BOND
     1     1     2    1
     2     2    21    1
     3    21    22   ar
     4    22    23   ar
     5    23    24   ar
     6    24    25   ar
     7    25    26   ar
     8     2     3    1
     9     3     4    1
    10     4     5    1
    11     5     6    1
    12     6     7   ar
    13     7     8   ar
    14     8    13    1
    15    13    14   ar
    16    14    15   ar
    17    15    16   ar
    18    16    17    1
    19    16    18   ar
    20    18    19    1
    21    18    20   ar
    22     8     9   ar
    23     9    10   ar
    24    10    11   ar
    25    11     2    1
    26    26    21   ar
    27    11     6   ar
    28    20    13   ar
    29     1    12    1
@<TRIPOS>MOLECULE
*****
 26 29 0 0 0
SMALL
GASTEIGER

@<TRIPOS>ATOM
      1 O          65.1505   90.5666   13.9695 O.3     1  UNL1       -0.3786
      2 C          65.4140   91.7121   13.0378 C.3     1  UNL1        0.1254
      3 C          65.9912   92.9882   12.5008 C.3     1  UNL1        0.0357
      4 C          65.5734   93.4906   11.1506 C.3     1  UNL1        0.0078
      5 C          64.5783   92.7169   10.3374 C.3     1  UNL1        0.0262
      6 C          64.0011   91.4408   10.8744 C.ar    1  UNL1       -0.0237
      7 C          63.0061   90.6671   10.0612 C.ar    1  UNL1       -0.0045
      8 C          62.4288   89.3910   10.5982 C.ar    1  UNL1       -0.0003
      9 C          62.8467   88.8886   11.9484 C.ar    1  UNL1       -0.0003
     10 C          63.8417   89.6623   12.7616 C.ar    1  UNL1       -0.0020
     11 C          64.4189   90.9384   12.2246 C.ar    1  UNL1        0.0016
     12 H          65.6814   90.6755   14.7740 H       1  UNL1        0.2111
     13 C          61.4338   88.6173    9.7850 C.ar    1  UNL1        0.0024
     14 C          61.3275   87.1299    9.9468 C.ar    1  UNL1        0.0025
     15 C          60.3325   86.3562    9.1336 C.ar    1  UNL1        0.0320
     16 C          59.4437   87.0699    8.1586 C.ar    1  UNL1        0.1674
     17 F          58.4487   86.2962    7.3454 F       1  UNL1       -0.2018
     18 C          59.5500   88.5574    7.9967 C.ar    1  UNL1        0.1674
     19 F          58.6612   89.2712    7.0217 F       1  UNL1       -0.2018
     20 C          60.5450   89.3311    8.8099 C.ar    1  UNL1        0.0320
     21 C          66.3175   92.0879   14.1746 C.ar    1  UNL1        0.0086
     22 C          65.7442   92.3331   15.5389 C.ar    1  UNL1        0.0190
     23 C          66.6479   92.7089   16.6757 C.ar    1  UNL1        0.0986
     24 N          68.1247   92.8395   16.4482 N.ar    1  UNL1       -0.2423
     25 C          68.6980   92.5943   15.0839 C.ar    1  UNL1        0.0986
     26 C          67.7944   92.2186   13.9471 C.ar    1  UNL1        0.0190
@<TRIPOS>BOND
     1     1     2    1
     2     2    21    1
     3    21    22   ar
     4    22    23   ar
     5    23    24   ar
     6    24    25   ar
     7    25    26   ar
     8     2     3    1
     9     3     4    1
    10     4     5    1
    11     5     6    1
    12     6     7   ar
    13     7     8   ar
    14     8    13    1
    15    13    14   ar
    16    14    15   ar
    17    15    16   ar
    18    16    17    1
    19    16    18   ar
    20    18    19    1
    21    18    20   ar
    22     8     9   ar
    23     9    10   ar
    24    10    11   ar
    25    11     2    1
    26    26    21   ar
    27    11     6   ar
    28    20    13   ar
    29     1    12    1
@<TRIPOS>MOLECULE
*****
 26 29 0 0 0
SMALL
GASTEIGER

@<TRIPOS>ATOM
      1 O          61.6860   89.3339    9.8248 O.3     1  UNL1       -0.3786
      2 C          61.7934   87.9854   10.4728 C.3     1  UNL1        0.1254
      3 C          61.5828   86.5218   10.7247 C.3     1  UNL1        0.0357
      4 C          62.2507   85.8581   11.8923 C.3     1  UNL1        0.0078
      5 C          63.1292   86.6579   12.8080 C.3     1  UNL1        0.0262
      6 C          63.3398   88.1215   12.5561 C.ar    1  UNL1       -0.0237
      7 C          64.2183   88.9213   13.4718 C.ar    1  UNL1       -0.0045
      8 C          64.4290   90.3849   13.2200 C.ar    1  UNL1       -0.0003
      9 C          63.7611   91.0487   12.0523 C.ar    1  UNL1       -0.0003
     10 C          62.8826   90.2489   11.1366 C.ar    1  UNL1       -0.0020
     11 C          62.6719   88.7852   11.3885 C.ar    1  UNL1        0.0016
     12 H          61.1074   89.2745    9.0485 H       1  UNL1        0.2111
     13 C          65.3075   91.1847   14.1357 C.ar    1  UNL1        0.0024
     14 C          64.7714   91.6795   15.4463 C.ar    1  UNL1        0.0025
     15 C          65.6499   92.4793   16.3620 C.ar    1  UNL1        0.0320
     16 C          67.0645   92.7843   15.9671 C.ar    1  UNL1        0.1674
     17 F          67.9430   93.5841   16.8828 F       1  UNL1       -0.2018
     18 C          67.6006   92.2895   14.6564 C.ar    1  UNL1        0.1674
     19 F          69.0151   92.5945   14.2615 F       1  UNL1       -0.2018
     20 C          66.7221   91.4897   13.7407 C.ar    1  UNL1        0.0320
     21 C          60.8776   87.6540    9.3320 C.ar    1  UNL1        0.0086
     22 C          60.7965   86.2466    8.8197 C.ar    1  UNL1        0.0190
     23 C          59.8806   85.9153    7.6789 C.ar    1  UNL1        0.0986
     24 N          59.0459   86.9914    7.0504 N.ar    1  UNL1       -0.2423
     25 C          59.1271   88.3989    7.5626 C.ar    1  UNL1        0.0986
     26 C          60.0429   88.7302    8.7034 C.ar    1  UNL1        0.0190
@<TRIPOS>BOND
     1     1     2    1
     2     2    21    1
     3    21    22   ar
     4    22    23   ar
     5    23    24   ar
     6    24    25   ar
     7    25    26   ar
     8     2     3    1
     9     3     4    1
    10     4     5    1
    11     5     6    1
    12     6     7   ar
    13     7     8   ar
    14     8    13    1
    15    13    14   ar
    16    14    15   ar
    17    15    16   ar
    18    16    17    1
    19    16    18   ar
    20    18    19    1
    21    18    20   ar
    22     8     9   ar
    23     9    10   ar
    24    10    11   ar
    25    11     2    1
    26    26    21   ar
    27    11     6   ar
    28    20    13   ar
    29     1    12    1
@<TRIPOS>MOLECULE
*****
 26 29 0 0 0
SMALL
GASTEIGER

@<TRIPOS>ATOM
      1 O          65.0530   92.6022   10.9117 O.3     1  UNL1       -0.3786
      2 C          65.7847   93.3817   11.9639 C.3     1  UNL1        0.1254
      3 C          66.5840   94.4761   12.6067 C.3     1  UNL1        0.0357
      4 C          66.9345   94.3928   14.0628 C.3     1  UNL1        0.0078
      5 C          66.4855   93.2151   14.8760 C.3     1  UNL1        0.0262
      6 C          65.6862   92.1206   14.2332 C.ar    1  UNL1       -0.0237
      7 C          65.2373   90.9429   15.0465 C.ar    1  UNL1       -0.0045
      8 C          64.4380   89.8485   14.4037 C.ar    1  UNL1       -0.0003
      9 C          64.0875   89.9317   12.9475 C.ar    1  UNL1       -0.0003
     10 C          64.5364   91.1095   12.1342 C.ar    1  UNL1       -0.0020
     11 C          65.3358   92.2039   12.7771 C.ar    1  UNL1        0.0016
     12 H          65.0946   93.0796   10.0683 H       1  UNL1        0.2111
     13 C          63.9890   88.6707   15.2169 C.ar    1  UNL1        0.0024
     14 C          63.1942   88.8844   16.4709 C.ar    1  UNL1        0.0025
     15 C          62.7453   87.7067   17.2842 C.ar    1  UNL1        0.0320
     16 C          63.0912   86.3153   16.8435 C.ar    1  UNL1        0.1674
     17 F          62.6423   85.1375   17.6567 F       1  UNL1       -0.2018
     18 C          63.8860   86.1015   15.5894 C.ar    1  UNL1        0.1674
     19 F          64.2319   84.7101   15.1487 F       1  UNL1       -0.2018
     20 C          64.3350   87.2793   14.7761 C.ar    1  UNL1        0.0320
     21 C          65.9795   94.2887   10.7851 C.ar    1  UNL1        0.0086
     22 C          65.3012   95.6260   10.7476 C.ar    1  UNL1        0.0190
     23 C          65.4961   96.5330    9.5688 C.ar    1  UNL1        0.0986
     24 N          66.3692   96.1025    8.4276 N.ar    1  UNL1       -0.2423
     25 C          67.0474   94.7651    8.4651 C.ar    1  UNL1        0.0986
     26 C          66.8526   93.8582    9.6439 C.ar    1  UNL1        0.0190
@<TRIPOS>BOND
     1     1     2    1
     2     2    21    1
     3    21    22   ar
     4    22    23   ar
     5    23    24   ar
     6    24    25   ar
     7    25    26   ar
     8     2     3    1
     9     3     4    1
    10     4     5    1
    11     5     6    1
    12     6     7   ar
    13     7     8   ar
    14     8    13    1
    15    13    14   ar
    16    14    15   ar
    17    15    16   ar
    18    16    17    1
    19    16    18   ar
    20    18    19    1
    21    18    20   ar
    22     8     9   ar
    23     9    10   ar
    24    10    11   ar
    25    11     2    1
    26    26    21   ar
    27    11     6   ar
    28    20    13   ar
    29     1    12    1
@<TRIPOS>MOLECULE
*****
 26 29 0 0 0
SMALL
GASTEIGER

@<TRIPOS>ATOM
      1 O          63.6759   90.4449   12.9777 O.3     1  UNL1       -0.3786
      2 C          63.9678   89.2808   13.8775 C.3     1  UNL1        0.1254
      3 C          64.4056   88.5094   15.0871 C.3     1  UNL1        0.0357
      4 C          64.3222   87.0117   15.0922 C.3     1  UNL1        0.0078
      5 C          63.8010   86.2855   13.8876 C.3     1  UNL1        0.0262
      6 C          63.3632   87.0570   12.6780 C.ar    1  UNL1       -0.0237
      7 C          62.8420   86.3308   11.4734 C.ar    1  UNL1       -0.0045
      8 C          62.4042   87.1022   10.2638 C.ar    1  UNL1       -0.0003
      9 C          62.4877   88.6000   10.2587 C.ar    1  UNL1       -0.0003
     10 C          63.0089   89.3261   11.4633 C.ar    1  UNL1       -0.0020
     11 C          63.4466   88.5546   12.6730 C.ar    1  UNL1        0.0016
     12 H          63.9042   91.2705   13.4327 H       1  UNL1        0.2111
     13 C          61.8830   86.3760    9.0592 C.ar    1  UNL1        0.0024
     14 C          60.4231   86.4366    8.7205 C.ar    1  UNL1        0.0025
     15 C          59.9019   85.7104    7.5159 C.ar    1  UNL1        0.0320
     16 C          60.8406   84.9237    6.6501 C.ar    1  UNL1        0.1674
     17 F          60.3194   84.1975    5.4455 F       1  UNL1       -0.2018
     18 C          62.3007   84.8631    6.9888 C.ar    1  UNL1        0.1674
     19 F          63.2394   84.0763    6.1230 F       1  UNL1       -0.2018
     20 C          62.8219   85.5892    8.1934 C.ar    1  UNL1        0.0320
     21 C          64.3876   90.4113   14.7695 C.ar    1  UNL1        0.0086
     22 C          63.6072   90.7143   16.0141 C.ar    1  UNL1        0.0190
     23 C          64.0270   91.8449   16.9061 C.ar    1  UNL1        0.0986
     24 N          65.2274   92.6724   16.5534 N.ar    1  UNL1       -0.2423
     25 C          66.0078   92.3694   15.3088 C.ar    1  UNL1        0.0986
     26 C          65.5880   91.2389   14.4169 C.ar    1  UNL1        0.0190
@<TRIPOS>BOND
     1     1     2    1
     2     2    21    1
     3    21    22   ar
     4    22    23   ar
     5    23    24   ar
     6    24    25   ar
     7    25    26   ar
     8     2     3    1
     9     3     4    1
    10     4     5    1
    11     5     6    1
    12     6     7   ar
    13     7     8   ar
    14     8    13    1
    15    13    14   ar
    16    14    15   ar
    17    15    16   ar
    18    16    17    1
    19    16    18   ar
    20    18    19    1
    21    18    20   ar
    22     8     9   ar
    23     9    10   ar
    24    10    11   ar
    25    11     2    1
    26    26    21   ar
    27    11     6   ar
    28    20    13   ar
    29     1    12    1
@<TRIPOS>MOLECULE
*****
 26 29 0 0 0
SMALL
GASTEIGER

@<TRIPOS>ATOM
      1 O          64.0830   87.5967   14.2791 O.3     1  UNL1       -0.3786
      2 C          63.4521   88.1253   13.0250 C.3     1  UNL1        0.1254
      3 C          62.9444   89.1022   12.0063 C.3     1  UNL1        0.0357
      4 C          62.3012   88.6048   10.7458 C.3     1  UNL1        0.0078
      5 C          62.1657   87.1306   10.5041 C.3     1  UNL1        0.0262
      6 C          62.6735   86.1538   11.5229 C.ar    1  UNL1       -0.0237
      7 C          62.5380   84.6796   11.2812 C.ar    1  UNL1       -0.0045
      8 C          63.0457   83.7028   12.3000 C.ar    1  UNL1       -0.0003
      9 C          63.6889   84.2001   13.5606 C.ar    1  UNL1       -0.0003
     10 C          63.8244   85.6743   13.8022 C.ar    1  UNL1       -0.0020
     11 C          63.3167   86.6512   12.7834 C.ar    1  UNL1        0.0016
     12 H          64.3707   88.3386   14.8338 H       1  UNL1        0.2111
     13 C          62.9102   82.2286   12.0583 C.ar    1  UNL1        0.0024
     14 C          62.6179   81.3046   13.2032 C.ar    1  UNL1        0.0025
     15 C          62.4824   79.8304   12.9615 C.ar    1  UNL1        0.0320
     16 C          62.6392   79.2802   11.5749 C.ar    1  UNL1        0.1674
     17 F          62.5037   77.8060   11.3332 F       1  UNL1       -0.2018
     18 C          62.9315   80.2042   10.4299 C.ar    1  UNL1        0.1674
     19 F          63.0883   79.6540    9.0434 F       1  UNL1       -0.2018
     20 C          63.0670   81.6784   10.6716 C.ar    1  UNL1        0.0320
     21 C          63.8068   89.4159   13.7023 C.ar    1  UNL1        0.0086
     22 C          63.4268   89.6397   15.1360 C.ar    1  UNL1        0.0190
     23 C          63.7815   90.9304   15.8132 C.ar    1  UNL1        0.0986
     24 N          64.5161   91.9971   15.0566 N.ar    1  UNL1       -0.2423
     25 C          64.8961   91.7732   13.6229 C.ar    1  UNL1        0.0986
     26 C          64.5414   90.4827   12.9458 C.ar    1  UNL1        0.0190
@<TRIPOS>BOND
     1     1     2    1
     2     2    21    1
     3    21    22   ar
     4    22    23   ar
     5    23    24   ar
     6    24    25   ar
     7    25    26   ar
     8     2     3    1
     9     3     4    1
    10     4     5    1
    11     5     6    1
    12     6     7   ar
    13     7     8   ar
    14     8    13    1
    15    13    14   ar
    16    14    15   ar
    17    15    16   ar
    18    16    17    1
    19    16    18   ar
    20    18    19    1
    21    18    20   ar
    22     8     9   ar
    23     9    10   ar
    24    10    11   ar
    25    11     2    1
    26    26    21   ar
    27    11     6   ar
    28    20    13   ar
    29     1    12    1
