@<TRIPOS>MOLECULE
*****
 25 27 0 0 0
SMALL
GASTEIGER

@<TRIPOS>ATOM
      1 C          64.2674   90.3435   13.5377 C.ar    1  UNL1       -0.0001
      2 C          63.4781   90.4434   12.2662 C.ar    1  UNL1       -0.0003
      3 C          62.8836   89.2100   11.6535 C.ar    1  UNL1       -0.0031
      4 C          63.0786   87.8767   12.3124 C.ar    1  UNL1       -0.0071
      5 C          63.8680   87.7768   13.5839 C.ar    1  UNL1       -0.0071
      6 C          64.4624   89.0102   14.1966 C.ar    1  UNL1       -0.0031
      7 C          63.8926   86.3364   14.0023 C.3     1  UNL1        0.1222
      8 N          63.1185   85.5462   12.9893 N.3     1  UNL1       -0.1462
      9 C          62.6154   86.4982   11.9449 C.3     1  UNL1        0.1222
     10 S          62.8878   84.0643   13.0159 S.O2    1  UNL1        0.0696
     11 O          62.4064   84.1647   14.4331 O.2     1  UNL1       -0.1523
     12 O          63.3693   83.9639   11.5989 O.2     1  UNL1       -0.1523
     13 C          62.6572   82.5824   13.0425 C.ar    1  UNL1        0.1517
     14 C          63.0414   81.6109   11.9661 C.ar    1  UNL1        0.0271
     15 C          62.6235   80.2398   12.4086 C.ar    1  UNL1        0.0089
     16 C          61.9812   80.3640   13.7583 C.ar    1  UNL1        0.0368
     17 S          62.0021   81.8118   14.1501 S.2     1  UNL1       -0.0668
     18 C          66.2638   91.9844   13.8062 C.2     1  UNL1        0.0598
     19 C          64.8619   91.5769   14.1504 C.2     1  UNL1        0.0047
     20 O          66.4716   94.5723   13.9034 O.2     1  UNL1       -0.2681
     21 C          66.8582   93.2178   14.4189 C.2     1  UNL1        0.2679
     22 N          67.8393   93.0966   15.5471 N.am    1  UNL1       -0.1934
     23 O          68.4337   94.3300   16.1598 O.3     1  UNL1       -0.2949
     24 H          68.0931   92.2076   15.8855 H       1  UNL1        0.1825
     25 H          68.0804   95.1153   15.7133 H       1  UNL1        0.2414
@<TRIPOS>BOND
     1    20    21    2
     2    21    18    1
     3    18    19    2
     4    19     1    1
     5     1     2   ar
     6     2     3   ar
     7     3     4   ar
     8     4     5   ar
     9     5     6   ar
    10     5     7    1
    11     7     8    1
    12     8    10    1
    13    10    11    2
    14    10    12    2
    15    10    13    1
    16    13    14   ar
    17    14    15   ar
    18    15    16   ar
    19    16    17   ar
    20     8     9    1
    21    21    22   am
    22    22    23    1
    23     6     1   ar
    24    17    13   ar
    25     9     4    1
    26    22    24    1
    27    23    25    1
@<TRIPOS>MOLECULE
*****
 25 27 0 0 0
SMALL
GASTEIGER

@<TRIPOS>ATOM
      1 C          63.5022   90.5936   11.8648 C.ar    1  UNL1       -0.0001
      2 C          62.6751   90.3810   10.6316 C.ar    1  UNL1       -0.0003
      3 C          62.1706   89.0092   10.2942 C.ar    1  UNL1       -0.0031
      4 C          62.4932   87.8501   11.1900 C.ar    1  UNL1       -0.0071
      5 C          63.3202   88.0628   12.4231 C.ar    1  UNL1       -0.0071
      6 C          63.8248   89.4345   12.7605 C.ar    1  UNL1       -0.0031
      7 C          63.4759   86.7388   13.1109 C.3     1  UNL1        0.1222
      8 N          62.7451   85.7079   12.3027 N.3     1  UNL1       -0.1462
      9 C          62.1377   86.3948   11.1155 C.3     1  UNL1        0.1222
     10 S          62.6400   84.2467   12.6251 S.O2    1  UNL1        0.0696
     11 O          62.3939   84.5823   14.0662 O.2     1  UNL1       -0.1523
     12 O          62.8861   83.9111   11.1840 O.2     1  UNL1       -0.1523
     13 C          62.5349   82.7855   12.9474 C.ar    1  UNL1        0.1517
     14 C          62.8324   81.6525   12.0105 C.ar    1  UNL1        0.0271
     15 C          62.5952   80.3675   12.7473 C.ar    1  UNL1        0.0089
     16 C          62.1513   80.7065   14.1394 C.ar    1  UNL1        0.0368
     17 S          62.1140   82.2009   14.2630 S.2     1  UNL1       -0.0668
     18 C          65.4055   92.3617   11.8332 C.2     1  UNL1        0.0598
     19 C          64.0067   91.9653   12.2021 C.2     1  UNL1        0.0047
     20 O          66.7893   93.9354   13.3689 O.2     1  UNL1       -0.2681
     21 C          65.9101   93.7334   12.1706 C.2     1  UNL1        0.2679
     22 N          65.5353   94.9032   11.3095 N.am    1  UNL1       -0.1934
     23 O          66.0398   96.2749   11.6469 O.3     1  UNL1       -0.2949
     24 H          64.9582   94.7706   10.5230 H       1  UNL1        0.1825
     25 H          66.5900   96.2299   12.4445 H       1  UNL1        0.2414
@<TRIPOS>BOND
     1    20    21    2
     2    21    18    1
     3    18    19    2
     4    19     1    1
     5     1     2   ar
     6     2     3   ar
     7     3     4   ar
     8     4     5   ar
     9     5     6   ar
    10     5     7    1
    11     7     8    1
    12     8    10    1
    13    10    11    2
    14    10    12    2
    15    10    13    1
    16    13    14   ar
    17    14    15   ar
    18    15    16   ar
    19    16    17   ar
    20     8     9    1
    21    21    22   am
    22    22    23    1
    23     6     1   ar
    24    17    13   ar
    25     9     4    1
    26    22    24    1
    27    23    25    1
@<TRIPOS>MOLECULE
*****
 25 27 0 0 0
SMALL
GASTEIGER

@<TRIPOS>ATOM
      1 C          63.5488   89.3693   13.0166 C.ar    1  UNL1       -0.0001
      2 C          62.7594   89.4791   11.7459 C.ar    1  UNL1       -0.0003
      3 C          62.2977   88.2386   11.0402 C.ar    1  UNL1       -0.0031
      4 C          62.6255   86.8883   11.6052 C.ar    1  UNL1       -0.0071
      5 C          63.4149   86.7785   12.8759 C.ar    1  UNL1       -0.0071
      6 C          63.8766   88.0190   13.5816 C.ar    1  UNL1       -0.0031
      7 C          63.5854   85.3219   13.1913 C.3     1  UNL1        0.1222
      8 N          62.9013   84.5316   12.1156 N.3     1  UNL1       -0.1462
      9 C          62.3080   85.4996   11.1353 C.3     1  UNL1        0.1222
     10 S          62.8240   83.0357   12.0343 S.O2    1  UNL1        0.0696
     11 O          63.2119   83.0943   10.5865 O.2     1  UNL1       -0.1523
     12 O          62.4360   82.9771   13.4820 O.2     1  UNL1       -0.1523
     13 C          62.7466   81.5399   11.9531 C.ar    1  UNL1        0.1517
     14 C          62.9618   80.7116   10.7211 C.ar    1  UNL1        0.0271
     15 C          62.7887   79.2696   11.0962 C.ar    1  UNL1        0.0089
     16 C          62.4666   79.2067   12.5599 C.ar    1  UNL1        0.0368
     17 S          62.4407   80.6099   13.0894 S.2     1  UNL1       -0.0668
     18 C          64.2793   90.5773   15.1976 C.2     1  UNL1        0.0598
     19 C          64.0105   90.6098   13.7223 C.2     1  UNL1        0.0047
     20 O          63.7882   92.5858   16.7707 O.2     1  UNL1       -0.2681
     21 C          64.7410   91.8178   15.9033 C.2     1  UNL1        0.2679
     22 N          66.1555   92.2903   15.7417 N.am    1  UNL1       -0.1934
     23 O          66.6171   93.5308   16.4474 O.3     1  UNL1       -0.2949
     24 H          66.7808   91.7862   15.1724 H       1  UNL1        0.1825
     25 H          65.8834   93.9022   16.9617 H       1  UNL1        0.2414
@<TRIPOS>BOND
     1    20    21    2
     2    21    18    1
     3    18    19    2
     4    19     1    1
     5     1     2   ar
     6     2     3   ar
     7     3     4   ar
     8     4     5   ar
     9     5     6   ar
    10     5     7    1
    11     7     8    1
    12     8    10    1
    13    10    11    2
    14    10    12    2
    15    10    13    1
    16    13    14   ar
    17    14    15   ar
    18    15    16   ar
    19    16    17   ar
    20     8     9    1
    21    21    22   am
    22    22    23    1
    23     6     1   ar
    24    17    13   ar
    25     9     4    1
    26    22    24    1
    27    23    25    1
@<TRIPOS>MOLECULE
*****
 25 27 0 0 0
SMALL
GASTEIGER

@<TRIPOS>ATOM
      1 C          63.0320   90.2247   11.1188 C.ar    1  UNL1       -0.0001
      2 C          61.9659   89.9034   10.1137 C.ar    1  UNL1       -0.0003
      3 C          61.4232   88.5084   10.0161 C.ar    1  UNL1       -0.0031
      4 C          61.9464   87.4348   10.9235 C.ar    1  UNL1       -0.0071
      5 C          63.0124   87.7561   11.9286 C.ar    1  UNL1       -0.0071
      6 C          63.5552   89.1511   12.0263 C.ar    1  UNL1       -0.0031
      7 C          63.3311   86.4999   12.6840 C.3     1  UNL1        0.1222
      8 N          62.4621   85.4023   12.1456 N.3     1  UNL1       -0.1462
      9 C          61.6063   85.9801   11.0576 C.3     1  UNL1        0.1222
     10 S          62.4508   83.9770   12.6131 S.O2    1  UNL1        0.0696
     11 O          62.8010   83.5199   11.2280 O.2     1  UNL1       -0.1523
     12 O          62.1005   84.4341   13.9981 O.2     1  UNL1       -0.1523
     13 C          62.4395   82.5518   13.0807 C.ar    1  UNL1        0.1517
     14 C          61.6518   82.0093   14.2363 C.ar    1  UNL1        0.0271
     15 C          61.9394   80.5411   14.3446 C.ar    1  UNL1        0.0089
     16 C          62.9046   80.1762   13.2559 C.ar    1  UNL1        0.0368
     17 S          63.2137   81.4190   12.4748 S.2     1  UNL1       -0.0668
     18 C          65.0153   91.8407   11.5714 C.2     1  UNL1        0.0598
     19 C          63.5748   91.6196   11.2165 C.2     1  UNL1        0.0047
     20 O          65.7655   94.0485   10.4256 O.2     1  UNL1       -0.2681
     21 C          65.5581   93.2357   11.6690 C.2     1  UNL1        0.2679
     22 N          65.8934   93.8178   13.0102 N.am    1  UNL1       -0.1934
     23 O          66.4362   95.2127   13.1079 O.3     1  UNL1       -0.2949
     24 H          65.7573   93.2842   13.8264 H       1  UNL1        0.1825
     25 H          66.5082   95.5946   12.2192 H       1  UNL1        0.2414
@<TRIPOS>BOND
     1    20    21    2
     2    21    18    1
     3    18    19    2
     4    19     1    1
     5     1     2   ar
     6     2     3   ar
     7     3     4   ar
     8     4     5   ar
     9     5     6   ar
    10     5     7    1
    11     7     8    1
    12     8    10    1
    13    10    11    2
    14    10    12    2
    15    10    13    1
    16    13    14   ar
    17    14    15   ar
    18    15    16   ar
    19    16    17   ar
    20     8     9    1
    21    21    22   am
    22    22    23    1
    23     6     1   ar
    24    17    13   ar
    25     9     4    1
    26    22    24    1
    27    23    25    1
@<TRIPOS>MOLECULE
*****
 25 27 0 0 0
SMALL
GASTEIGER

@<TRIPOS>ATOM
      1 C          62.5308   84.3063   11.2937 C.ar    1  UNL1       -0.0001
      2 C          61.9499   85.2573   10.2897 C.ar    1  UNL1       -0.0003
      3 C          62.0687   86.7374   10.5023 C.ar    1  UNL1       -0.0031
      4 C          62.7685   87.2665   11.7190 C.ar    1  UNL1       -0.0071
      5 C          63.3494   86.3155   12.7230 C.ar    1  UNL1       -0.0071
      6 C          63.2306   84.8354   12.5104 C.ar    1  UNL1       -0.0031
      7 C          63.9784   87.1249   13.8182 C.3     1  UNL1        0.1222
      8 N          63.7863   88.5760   13.4909 N.3     1  UNL1       -0.1462
      9 C          63.0385   88.6636   12.1935 C.3     1  UNL1        0.1222
     10 S          64.2589   89.7361   14.3162 S.O2    1  UNL1        0.0696
     11 O          64.5218   90.5196   13.0643 O.2     1  UNL1       -0.1523
     12 O          63.9960   88.9527   15.5680 O.2     1  UNL1       -0.1523
     13 C          64.7315   90.8961   15.1414 C.ar    1  UNL1        0.1517
     14 C          64.0641   91.4315   16.3734 C.ar    1  UNL1        0.0271
     15 C          64.8746   92.5907   16.8730 C.ar    1  UNL1        0.0089
     16 C          66.0428   92.7716   15.9497 C.ar    1  UNL1        0.0368
     17 S          65.9544   91.7242   14.8795 S.2     1  UNL1       -0.0668
     18 C          62.8046   81.8775   12.1746 C.2     1  UNL1        0.0598
     19 C          62.4120   82.8262   11.0811 C.2     1  UNL1        0.0047
     20 O          62.3777   79.4957   13.1203 O.2     1  UNL1       -0.2681
     21 C          62.6858   80.3974   11.9619 C.2     1  UNL1        0.2679
     22 N          62.8751   79.8191   10.5908 N.am    1  UNL1       -0.1934
     23 O          62.7562   78.3390   10.3782 O.3     1  UNL1       -0.2949
     24 H          63.0773   80.4110    9.8305 H       1  UNL1        0.1825
     25 H          62.5555   77.9061   11.2227 H       1  UNL1        0.2414
@<TRIPOS>BOND
     1    20    21    2
     2    21    18    1
     3    18    19    2
     4    19     1    1
     5     1     2   ar
     6     2     3   ar
     7     3     4   ar
     8     4     5   ar
     9     5     6   ar
    10     5     7    1
    11     7     8    1
    12     8    10    1
    13    10    11    2
    14    10    12    2
    15    10    13    1
    16    13    14   ar
    17    14    15   ar
    18    15    16   ar
    19    16    17   ar
    20     8     9    1
    21    21    22   am
    22    22    23    1
    23     6     1   ar
    24    17    13   ar
    25     9     4    1
    26    22    24    1
    27    23    25    1
