@<TRIPOS>MOLECULE
*****
 42 45 0 0 0
SMALL
GASTEIGER

@<TRIPOS>ATOM
      1 N          63.6852   88.5225   12.9059 N.am    1  UNL1       -0.2927
      2 C          63.8641   87.6427   14.1075 C.2     1  UNL1        0.2508
      3 O          63.9496   88.2506   15.4761 O.2     1  UNL1       -0.2700
      4 H          63.6290   88.1235   12.0076 H       1  UNL1        0.1502
      5 C          63.9576   86.1549   13.9405 C.ar    1  UNL1        0.1068
      6 C          64.7974   85.3456   14.8838 C.ar    1  UNL1        0.0108
      7 C          64.8909   83.8579   14.7169 C.ar    1  UNL1        0.0210
      8 C          64.1445   83.1795   13.6066 C.ar    1  UNL1        0.1021
      9 N          63.3047   83.9887   12.6633 N.ar    1  UNL1       -0.2097
     10 C          63.2113   85.4765   12.8302 C.ar    1  UNL1        0.2340
     11 O          62.3715   86.2857   11.8869 O.3     1  UNL1       -0.4351
     12 C          62.2335   85.8629   10.4544 C.ar    1  UNL1        0.1576
     13 C          63.2094   84.8898    9.8623 C.ar    1  UNL1        0.0384
     14 C          63.0714   84.4670    8.4297 C.ar    1  UNL1        0.0070
     15 C          61.9575   85.0173    7.5893 C.ar    1  UNL1        0.0725
     16 C          60.9816   85.9904    8.1814 C.ar    1  UNL1        0.0183
     17 C          61.1195   86.4132    9.6139 C.ar    1  UNL1        0.0921
     18 CL         60.1436   87.3863   10.2061 Cl      1  UNL1       -0.0791
     19 C          61.8195   84.5945    6.1568 C.3     1  UNL1        0.4186
     20 F          61.6815   84.1716    4.7242 F       1  UNL1       -0.1659
     21 F          63.3104   84.6426    5.9990 F       1  UNL1       -0.1659
     22 F          60.3287   84.5463    6.3146 F       1  UNL1       -0.1659
     23 C          63.5917   90.0103   13.0728 C.3     1  UNL1        0.1789
     24 C          69.0235   93.4291   15.5340 C.3     1  UNL1        0.0897
     25 N          67.7264   92.7296   15.2546 N.3     1  UNL1       -0.2686
     26 C          66.6724   92.6507   16.3190 C.3     1  UNL1        0.0939
     27 C          65.3753   91.9511   16.0396 C.3     1  UNL1        0.1108
     28 N          65.1321   91.3305   14.6959 N.am    1  UNL1       -0.2753
     29 C          63.8349   90.6309   14.4166 C.2     1  UNL1        0.2462
     30 O          62.7810   90.5520   15.4809 O.2     1  UNL1       -0.2730
     31 C          66.1860   91.4094   13.6315 C.3     1  UNL1        0.1108
     32 C          67.4832   92.1089   13.9109 C.3     1  UNL1        0.0939
     33 C          63.2550   90.8774   11.8961 C.3     1  UNL1        0.1715
     34 O          64.3470   91.3839   11.0009 O.3     1  UNL1       -0.3467
     35 C          64.6683   92.8487   10.9650 C.3     1  UNL1        0.1688
     36 C          65.9690   93.3171   10.3832 C.ar    1  UNL1        0.0112
     37 C          67.0975   92.3475   10.1917 C.ar    1  UNL1        0.0189
     38 C          68.3982   92.8160    9.6099 C.ar    1  UNL1        0.0996
     39 N          68.5706   94.2540    9.2195 N.ar    1  UNL1       -0.2325
     40 C          67.4423   95.2236    9.4110 C.ar    1  UNL1        0.1381
     41 CL         67.6147   96.6616    9.0206 Cl      1  UNL1       -0.0613
     42 C          66.1414   94.7551    9.9928 C.ar    1  UNL1        0.0290
@<TRIPOS>BOND
     1    24    25    1
     2    25    26    1
     3    26    27    1
     4    27    28    1
     5    28    29   am
     6    29    30    2
     7    29    23    1
     8    23    33    1
     9    33    34    1
    10    34    35    1
    11    35    36    1
    12    36    37   ar
    13    37    38   ar
    14    38    39   ar
    15    39    40   ar
    16    40    41    1
    17    40    42   ar
    18    23     1    1
    19     1     2   am
    20     2     3    2
    21     2     5    1
    22     5     6   ar
    23     6     7   ar
    24     7     8   ar
    25     8     9   ar
    26     9    10   ar
    27    10    11    1
    28    11    12    1
    29    12    13   ar
    30    13    14   ar
    31    14    15   ar
    32    15    19    1
    33    19    20    1
    34    19    21    1
    35    19    22    1
    36    15    16   ar
    37    16    17   ar
    38    17    18    1
    39    28    31    1
    40    31    32    1
    41    32    25    1
    42    42    36   ar
    43    10     5   ar
    44    17    12   ar
    45     1     4    1
@<TRIPOS>MOLECULE
*****
 42 45 0 0 0
SMALL
GASTEIGER

@<TRIPOS>ATOM
      1 N          63.0135   89.2292   11.0807 N.am    1  UNL1       -0.2927
      2 C          61.5449   88.9241   11.0906 C.2     1  UNL1        0.2508
      3 O          60.6818   89.4278   12.2092 O.2     1  UNL1       -0.2700
      4 H          63.5799   88.8986   10.3465 H       1  UNL1        0.1502
      5 C          60.9393   88.1153    9.9819 C.ar    1  UNL1        0.1068
      6 C          59.6923   88.5937    9.2993 C.ar    1  UNL1        0.0108
      7 C          59.0867   87.7850    8.1906 C.ar    1  UNL1        0.0210
      8 C          59.7283   86.4978    7.7645 C.ar    1  UNL1        0.1021
      9 N          60.9753   86.0194    8.4471 N.ar    1  UNL1       -0.2097
     10 C          61.5809   86.8282    9.5558 C.ar    1  UNL1        0.2340
     11 O          62.8279   86.3497   10.2384 O.3     1  UNL1       -0.4351
     12 C          62.8159   85.0604   11.0047 C.ar    1  UNL1        0.1576
     13 C          62.3386   85.0374   12.4266 C.ar    1  UNL1        0.0384
     14 C          62.3266   83.7479   13.1929 C.ar    1  UNL1        0.0070
     15 C          62.7920   82.4815   12.5374 C.ar    1  UNL1        0.0725
     16 C          63.2693   82.5045   11.1156 C.ar    1  UNL1        0.0183
     17 C          63.2813   83.7939   10.3493 C.ar    1  UNL1        0.0921
     18 CL         63.7587   83.8169    8.9274 Cl      1  UNL1       -0.0791
     19 C          62.7800   81.1922   13.3038 C.3     1  UNL1        0.4186
     20 F          62.7680   79.9027   14.0702 F       1  UNL1       -0.1659
     21 F          61.2811   81.2310   13.3456 F       1  UNL1       -0.1659
     22 F          64.2788   81.1533   13.2619 F       1  UNL1       -0.1659
     23 C          63.6190   90.0380   12.1894 C.3     1  UNL1        0.1789
     24 C          68.2168   93.8220   15.6234 C.3     1  UNL1        0.0897
     25 N          67.2072   93.2165   14.6937 N.3     1  UNL1       -0.2686
     26 C          66.7573   93.9734   13.4794 C.3     1  UNL1        0.0939
     27 C          65.7477   93.3680   12.5497 C.3     1  UNL1        0.1108
     28 N          65.1881   92.0057   12.8344 N.am    1  UNL1       -0.2753
     29 C          64.1786   91.4003   11.9047 C.2     1  UNL1        0.2462
     30 O          63.7286   92.1571   10.6904 O.2     1  UNL1       -0.2730
     31 C          65.6381   91.2489   14.0487 C.3     1  UNL1        0.1108
     32 C          66.6477   91.8543   14.9784 C.3     1  UNL1        0.0939
     33 C          63.6649   89.4845   13.5828 C.3     1  UNL1        0.1715
     34 O          62.8867   90.1488   14.6797 O.3     1  UNL1       -0.3467
     35 C          62.9854   89.6360   16.0859 C.3     1  UNL1        0.1688
     36 C          63.2122   88.1747   16.3371 C.ar    1  UNL1        0.0112
     37 C          62.5904   87.5137   17.5315 C.ar    1  UNL1        0.0189
     38 C          62.8172   86.0524   17.7827 C.ar    1  UNL1        0.0996
     39 N          63.6658   85.2521   16.8396 N.ar    1  UNL1       -0.2325
     40 C          64.2875   85.9131   15.6452 C.ar    1  UNL1        0.1381
     41 CL         65.1360   85.1128   14.7021 Cl      1  UNL1       -0.0613
     42 C          64.0607   87.3744   15.3940 C.ar    1  UNL1        0.0290
@<TRIPOS>BOND
     1    24    25    1
     2    25    26    1
     3    26    27    1
     4    27    28    1
     5    28    29   am
     6    29    30    2
     7    29    23    1
     8    23    33    1
     9    33    34    1
    10    34    35    1
    11    35    36    1
    12    36    37   ar
    13    37    38   ar
    14    38    39   ar
    15    39    40   ar
    16    40    41    1
    17    40    42   ar
    18    23     1    1
    19     1     2   am
    20     2     3    2
    21     2     5    1
    22     5     6   ar
    23     6     7   ar
    24     7     8   ar
    25     8     9   ar
    26     9    10   ar
    27    10    11    1
    28    11    12    1
    29    12    13   ar
    30    13    14   ar
    31    14    15   ar
    32    15    19    1
    33    19    20    1
    34    19    21    1
    35    19    22    1
    36    15    16   ar
    37    16    17   ar
    38    17    18    1
    39    28    31    1
    40    31    32    1
    41    32    25    1
    42    42    36   ar
    43    10     5   ar
    44    17    12   ar
    45     1     4    1
@<TRIPOS>MOLECULE
*****
 42 45 0 0 0
SMALL
GASTEIGER

@<TRIPOS>ATOM
      1 N          63.0871   89.0072   13.0311 N.am    1  UNL1       -0.2927
      2 C          63.2194   89.4104   14.4698 C.2     1  UNL1        0.2508
      3 O          63.3196   90.8616   14.8359 O.2     1  UNL1       -0.2700
      4 H          63.0214   88.0547   12.7909 H       1  UNL1        0.1502
      5 C          63.2516   88.3623   15.5425 C.ar    1  UNL1        0.1068
      6 C          62.8889   88.7214   16.9530 C.ar    1  UNL1        0.0108
      7 C          62.9210   87.6735   18.0257 C.ar    1  UNL1        0.0210
      8 C          63.3158   86.2664   17.6879 C.ar    1  UNL1        0.1021
      9 N          63.6786   85.9073   16.2774 N.ar    1  UNL1       -0.2097
     10 C          63.6465   86.9552   15.2048 C.ar    1  UNL1        0.2340
     11 O          64.0092   86.5961   13.7943 O.3     1  UNL1       -0.4351
     12 C          63.7502   85.2100   13.2830 C.ar    1  UNL1        0.1576
     13 C          62.5497   84.9391   12.4253 C.ar    1  UNL1        0.0384
     14 C          62.2907   83.5528   11.9140 C.ar    1  UNL1        0.0070
     15 C          63.2321   82.4376   12.2604 C.ar    1  UNL1        0.0725
     16 C          64.4325   82.7085   13.1181 C.ar    1  UNL1        0.0183
     17 C          64.6916   84.0946   13.6294 C.ar    1  UNL1        0.0921
     18 CL         65.8920   84.3656   14.4870 Cl      1  UNL1       -0.0791
     19 C          62.9731   81.0515   11.7491 C.3     1  UNL1        0.4186
     20 F          62.7140   79.6652   11.2378 F       1  UNL1       -0.1659
     21 F          63.3414   81.4936   10.3639 F       1  UNL1       -0.1659
     22 F          62.6047   80.6093   13.1343 F       1  UNL1       -0.1659
     23 C          63.0550   90.0552   11.9584 C.3     1  UNL1        0.1789
     24 C          60.2682   85.7300    7.4004 C.3     1  UNL1        0.0897
     25 N          60.6623   86.8465    8.3212 N.3     1  UNL1       -0.2686
     26 C          59.8461   88.1042    8.3673 C.3     1  UNL1        0.0939
     27 C          60.2402   89.2207    9.2882 C.3     1  UNL1        0.1108
     28 N          61.4506   89.0797   10.1629 N.am    1  UNL1       -0.2753
     29 C          61.8447   90.1963   11.0837 C.2     1  UNL1        0.2462
     30 O          61.0285   91.4539   11.1298 O.2     1  UNL1       -0.2730
     31 C          62.2668   87.8221   10.1167 C.3     1  UNL1        0.1108
     32 C          61.8727   86.7055    9.1959 C.3     1  UNL1        0.0939
     33 C          64.2332   90.9622   11.7605 C.3     1  UNL1        0.1715
     34 O          64.3696   92.2060   12.5878 O.3     1  UNL1       -0.3467
     35 C          65.7113   92.8577   12.7467 C.3     1  UNL1        0.1688
     36 C          66.4056   93.4453   11.5540 C.ar    1  UNL1        0.0112
     37 C          66.2572   94.9054   11.2437 C.ar    1  UNL1        0.0189
     38 C          66.9516   95.4930   10.0510 C.ar    1  UNL1        0.0996
     39 N          67.7943   94.6206    9.1686 N.ar    1  UNL1       -0.2325
     40 C          67.9427   93.1606    9.4789 C.ar    1  UNL1        0.1381
     41 CL         68.7855   92.2882    8.5964 Cl      1  UNL1       -0.0613
     42 C          67.2483   92.5729   10.6716 C.ar    1  UNL1        0.0290
@<TRIPOS>BOND
     1    24    25    1
     2    25    26    1
     3    26    27    1
     4    27    28    1
     5    28    29   am
     6    29    30    2
     7    29    23    1
     8    23    33    1
     9    33    34    1
    10    34    35    1
    11    35    36    1
    12    36    37   ar
    13    37    38   ar
    14    38    39   ar
    15    39    40   ar
    16    40    41    1
    17    40    42   ar
    18    23     1    1
    19     1     2   am
    20     2     3    2
    21     2     5    1
    22     5     6   ar
    23     6     7   ar
    24     7     8   ar
    25     8     9   ar
    26     9    10   ar
    27    10    11    1
    28    11    12    1
    29    12    13   ar
    30    13    14   ar
    31    14    15   ar
    32    15    19    1
    33    19    20    1
    34    19    21    1
    35    19    22    1
    36    15    16   ar
    37    16    17   ar
    38    17    18    1
    39    28    31    1
    40    31    32    1
    41    32    25    1
    42    42    36   ar
    43    10     5   ar
    44    17    12   ar
    45     1     4    1
@<TRIPOS>MOLECULE
*****
 42 45 0 0 0
SMALL
GASTEIGER

@<TRIPOS>ATOM
      1 N          63.8542   89.2713   13.8506 N.am    1  UNL1       -0.2927
      2 C          63.4087   89.3564   15.2804 C.2     1  UNL1        0.2508
      3 O          63.0939   90.6904   15.8898 O.2     1  UNL1       -0.2700
      4 H          64.0608   88.3957   13.4507 H       1  UNL1        0.1502
      5 C          63.2781   88.1074   16.1009 C.ar    1  UNL1        0.1068
      6 C          62.9010   88.1980   17.5499 C.ar    1  UNL1        0.0108
      7 C          62.7704   86.9492   18.3704 C.ar    1  UNL1        0.0210
      8 C          63.0167   85.6097   17.7419 C.ar    1  UNL1        0.1021
      9 N          63.3937   85.5191   16.2929 N.ar    1  UNL1       -0.2097
     10 C          63.5244   86.7680   15.4724 C.ar    1  UNL1        0.2340
     11 O          63.9014   86.6773   14.0234 O.3     1  UNL1       -0.4351
     12 C          63.7144   85.3887   13.2789 C.ar    1  UNL1        0.1576
     13 C          62.5784   85.2399   12.3107 C.ar    1  UNL1        0.0384
     14 C          62.3914   83.9511   11.5662 C.ar    1  UNL1        0.0070
     15 C          63.3404   82.8112   11.7900 C.ar    1  UNL1        0.0725
     16 C          64.4763   82.9600   12.7582 C.ar    1  UNL1        0.0183
     17 C          64.6634   84.2487   13.5026 C.ar    1  UNL1        0.0921
     18 CL         65.7993   84.3975   14.4708 Cl      1  UNL1       -0.0791
     19 C          63.1533   81.5225   11.0455 C.3     1  UNL1        0.4186
     20 F          62.9663   80.2338   10.3010 F       1  UNL1       -0.1659
     21 F          62.4021   80.9566   12.2139 F       1  UNL1       -0.1659
     22 F          63.9046   82.0885    9.8771 F       1  UNL1       -0.1659
     23 C          63.9849   90.5202   13.0301 C.3     1  UNL1        0.1789
     24 C          66.5547   95.7722    9.4159 C.3     1  UNL1        0.0897
     25 N          66.1694   94.7168   10.4097 N.3     1  UNL1       -0.2686
     26 C          66.8127   94.6916   11.7645 C.3     1  UNL1        0.0939
     27 C          66.4274   93.6362   12.7583 C.3     1  UNL1        0.1108
     28 N          65.3988   92.6059   12.3973 N.am    1  UNL1       -0.2753
     29 C          65.0135   91.5505   13.3911 C.2     1  UNL1        0.2462
     30 O          65.6569   91.5254   14.7459 O.2     1  UNL1       -0.2730
     31 C          64.7554   92.6310   11.0425 C.3     1  UNL1        0.1108
     32 C          65.1407   93.6865   10.0487 C.3     1  UNL1        0.0939
     33 C          63.0868   90.7388   11.8487 C.3     1  UNL1        0.1715
     34 O          62.8294   89.6185   10.8849 O.3     1  UNL1       -0.3467
     35 C          61.5021   88.9198   10.8842 C.3     1  UNL1        0.1688
     36 C          61.1858   87.9114    9.8198 C.ar    1  UNL1        0.0112
     37 C          59.8230   87.8841    9.1937 C.ar    1  UNL1        0.0189
     38 C          59.5068   86.8757    8.1293 C.ar    1  UNL1        0.0996
     39 N          60.5533   85.8946    7.6909 N.ar    1  UNL1       -0.2325
     40 C          61.9161   85.9219    8.3170 C.ar    1  UNL1        0.1381
     41 CL         62.9626   84.9407    7.8787 Cl      1  UNL1       -0.0613
     42 C          62.2324   86.9303    9.3815 C.ar    1  UNL1        0.0290
@<TRIPOS>BOND
     1    24    25    1
     2    25    26    1
     3    26    27    1
     4    27    28    1
     5    28    29   am
     6    29    30    2
     7    29    23    1
     8    23    33    1
     9    33    34    1
    10    34    35    1
    11    35    36    1
    12    36    37   ar
    13    37    38   ar
    14    38    39   ar
    15    39    40   ar
    16    40    41    1
    17    40    42   ar
    18    23     1    1
    19     1     2   am
    20     2     3    2
    21     2     5    1
    22     5     6   ar
    23     6     7   ar
    24     7     8   ar
    25     8     9   ar
    26     9    10   ar
    27    10    11    1
    28    11    12    1
    29    12    13   ar
    30    13    14   ar
    31    14    15   ar
    32    15    19    1
    33    19    20    1
    34    19    21    1
    35    19    22    1
    36    15    16   ar
    37    16    17   ar
    38    17    18    1
    39    28    31    1
    40    31    32    1
    41    32    25    1
    42    42    36   ar
    43    10     5   ar
    44    17    12   ar
    45     1     4    1
@<TRIPOS>MOLECULE
*****
 42 45 0 0 0
SMALL
GASTEIGER

@<TRIPOS>ATOM
      1 N          62.7562   89.0177   13.1322 N.am    1  UNL1       -0.2927
      2 C          63.4299   89.2203   14.4570 C.2     1  UNL1        0.2508
      3 O          64.2060   90.4768   14.7194 O.2     1  UNL1       -0.2700
      4 H          62.2469   88.1930   12.9600 H       1  UNL1        0.1502
      5 C          63.3274   88.1664   15.5195 C.ar    1  UNL1        0.1068
      6 C          62.9740   88.5509   16.9257 C.ar    1  UNL1        0.0108
      7 C          62.8715   87.4971   17.9881 C.ar    1  UNL1        0.0210
      8 C          63.1225   86.0588   17.6445 C.ar    1  UNL1        0.1021
      9 N          63.4759   85.6743   16.2383 N.ar    1  UNL1       -0.2097
     10 C          63.5784   86.7281   15.1759 C.ar    1  UNL1        0.2340
     11 O          63.9318   86.3436   13.7697 O.3     1  UNL1       -0.4351
     12 C          63.6853   84.9437   13.2905 C.ar    1  UNL1        0.1576
     13 C          62.4722   84.6368   12.4635 C.ar    1  UNL1        0.0384
     14 C          62.2257   83.2369   11.9843 C.ar    1  UNL1        0.0070
     15 C          63.1924   82.1440   12.3320 C.ar    1  UNL1        0.0725
     16 C          64.4056   82.4509   13.1591 C.ar    1  UNL1        0.0183
     17 C          64.6521   83.8508   13.6383 C.ar    1  UNL1        0.0921
     18 CL         65.8653   84.1577   14.4653 Cl      1  UNL1       -0.0791
     19 C          62.9460   80.7442   11.8528 C.3     1  UNL1        0.4186
     20 F          62.6995   79.3443   11.3735 F       1  UNL1       -0.1659
     21 F          62.6436   80.3163   13.2583 F       1  UNL1       -0.1659
     22 F          63.2483   81.1721   10.4473 F       1  UNL1       -0.1659
     23 C          62.8587   90.0716   12.0697 C.3     1  UNL1        0.1789
     24 C          60.4912   85.6388    7.3798 C.3     1  UNL1        0.0897
     25 N          60.8113   86.7823    8.2964 N.3     1  UNL1       -0.2686
     26 C          60.0442   88.0668    8.1891 C.3     1  UNL1        0.0939
     27 C          60.3643   89.2103    9.1057 C.3     1  UNL1        0.1108
     28 N          61.4515   89.0692   10.1294 N.am    1  UNL1       -0.2753
     29 C          61.7716   90.2127   11.0460 C.2     1  UNL1        0.2462
     30 O          61.0045   91.4972   10.9387 O.2     1  UNL1       -0.2730
     31 C          62.2185   87.7847   10.2367 C.3     1  UNL1        0.1108
     32 C          61.8984   86.6412    9.3201 C.3     1  UNL1        0.0939
     33 C          64.0484   90.9844   12.0311 C.3     1  UNL1        0.1715
     34 O          64.1708   92.0113   10.9444 O.3     1  UNL1       -0.3467
     35 C          65.3757   92.9029   10.8874 C.3     1  UNL1        0.1688
     36 C          66.5058   92.6992   11.8525 C.ar    1  UNL1        0.0112
     37 C          67.7437   91.9734   11.4155 C.ar    1  UNL1        0.0189
     38 C          68.8738   91.7697   12.3806 C.ar    1  UNL1        0.0996
     39 N          68.7660   92.2917   13.7827 N.ar    1  UNL1       -0.2325
     40 C          67.5282   93.0174   14.2197 C.ar    1  UNL1        0.1381
     41 CL         67.4204   93.5394   15.6218 Cl      1  UNL1       -0.0613
     42 C          66.3980   93.2212   13.2546 C.ar    1  UNL1        0.0290
@<TRIPOS>BOND
     1    24    25    1
     2    25    26    1
     3    26    27    1
     4    27    28    1
     5    28    29   am
     6    29    30    2
     7    29    23    1
     8    23    33    1
     9    33    34    1
    10    34    35    1
    11    35    36    1
    12    36    37   ar
    13    37    38   ar
    14    38    39   ar
    15    39    40   ar
    16    40    41    1
    17    40    42   ar
    18    23     1    1
    19     1     2   am
    20     2     3    2
    21     2     5    1
    22     5     6   ar
    23     6     7   ar
    24     7     8   ar
    25     8     9   ar
    26     9    10   ar
    27    10    11    1
    28    11    12    1
    29    12    13   ar
    30    13    14   ar
    31    14    15   ar
    32    15    19    1
    33    19    20    1
    34    19    21    1
    35    19    22    1
    36    15    16   ar
    37    16    17   ar
    38    17    18    1
    39    28    31    1
    40    31    32    1
    41    32    25    1
    42    42    36   ar
    43    10     5   ar
    44    17    12   ar
    45     1     4    1
@<TRIPOS>MOLECULE
*****
 42 45 0 0 0
SMALL
GASTEIGER

@<TRIPOS>ATOM
      1 N          61.8335   85.1012   11.7195 N.am    1  UNL1       -0.2927
      2 C          62.1148   85.3410   10.2658 C.2     1  UNL1        0.2508
      3 O          63.4072   84.8733    9.6648 O.2     1  UNL1       -0.2700
      4 H          60.9853   85.4082   12.1139 H       1  UNL1        0.1502
      5 C          61.1038   86.0486    9.4130 C.ar    1  UNL1        0.1068
      6 C          60.8332   85.5698    8.0174 C.ar    1  UNL1        0.0108
      7 C          59.8223   86.2773    7.1646 C.ar    1  UNL1        0.0210
      8 C          59.0819   87.4635    7.7073 C.ar    1  UNL1        0.1021
      9 N          59.3525   87.9423    9.1029 N.ar    1  UNL1       -0.2097
     10 C          60.3634   87.2348    9.9557 C.ar    1  UNL1        0.2340
     11 O          60.6340   87.7136   11.3513 O.3     1  UNL1       -0.4351
     12 C          61.6624   88.7785   11.5927 C.ar    1  UNL1        0.1576
     13 C          62.9446   88.4380   12.2928 C.ar    1  UNL1        0.0384
     14 C          63.9730   89.5030   12.5342 C.ar    1  UNL1        0.0070
     15 C          63.7192   90.9084   12.0755 C.ar    1  UNL1        0.0725
     16 C          62.4370   91.2489   11.3754 C.ar    1  UNL1        0.0183
     17 C          61.4086   90.1840   11.1340 C.ar    1  UNL1        0.0921
     18 CL         60.1265   90.5244   10.4339 Cl      1  UNL1       -0.0791
     19 C          64.7476   91.9733   12.3169 C.3     1  UNL1        0.4186
     20 F          65.7760   93.0383   12.5583 F       1  UNL1       -0.1659
     21 F          64.6198   92.4200   10.8907 F       1  UNL1       -0.1659
     22 F          64.8754   91.5266   13.7431 F       1  UNL1       -0.1659
     23 C          62.8446   84.3937   12.5723 C.3     1  UNL1        0.1789
     24 C          62.8840   77.9073   10.2973 C.3     1  UNL1        0.0897
     25 N          62.7832   79.2081   11.0375 N.3     1  UNL1       -0.2686
     26 C          62.3184   79.2254   12.4636 C.3     1  UNL1        0.0939
     27 C          62.2176   80.5261   13.2038 C.3     1  UNL1        0.1108
     28 N          62.5815   81.8095   12.5179 N.am    1  UNL1       -0.2753
     29 C          62.4806   83.1103   13.2582 C.2     1  UNL1        0.2462
     30 O          62.0159   83.1276   14.6842 O.2     1  UNL1       -0.2730
     31 C          63.0463   81.7922   11.0919 C.3     1  UNL1        0.1108
     32 C          63.1471   80.4915   10.3517 C.3     1  UNL1        0.0939
     33 C          64.2195   84.9696   12.7393 C.3     1  UNL1        0.1715
     34 O          65.0994   84.4978   13.8588 O.3     1  UNL1       -0.3467
     35 C          65.5004   85.4473   14.9486 C.3     1  UNL1        0.1688
     36 C          64.4531   86.2259   15.6880 C.ar    1  UNL1        0.0112
     37 C          63.5051   85.5191   16.6111 C.ar    1  UNL1        0.0189
     38 C          62.4577   86.2977   17.3505 C.ar    1  UNL1        0.0996
     39 N          62.3582   87.7831   17.1668 N.ar    1  UNL1       -0.2325
     40 C          63.3061   88.4898   16.2438 C.ar    1  UNL1        0.1381
     41 CL         63.2065   89.9752   16.0602 Cl      1  UNL1       -0.0613
     42 C          64.3535   87.7112   15.5044 C.ar    1  UNL1        0.0290
@<TRIPOS>BOND
     1    24    25    1
     2    25    26    1
     3    26    27    1
     4    27    28    1
     5    28    29   am
     6    29    30    2
     7    29    23    1
     8    23    33    1
     9    33    34    1
    10    34    35    1
    11    35    36    1
    12    36    37   ar
    13    37    38   ar
    14    38    39   ar
    15    39    40   ar
    16    40    41    1
    17    40    42   ar
    18    23     1    1
    19     1     2   am
    20     2     3    2
    21     2     5    1
    22     5     6   ar
    23     6     7   ar
    24     7     8   ar
    25     8     9   ar
    26     9    10   ar
    27    10    11    1
    28    11    12    1
    29    12    13   ar
    30    13    14   ar
    31    14    15   ar
    32    15    19    1
    33    19    20    1
    34    19    21    1
    35    19    22    1
    36    15    16   ar
    37    16    17   ar
    38    17    18    1
    39    28    31    1
    40    31    32    1
    41    32    25    1
    42    42    36   ar
    43    10     5   ar
    44    17    12   ar
    45     1     4    1
@<TRIPOS>MOLECULE
*****
 42 45 0 0 0
SMALL
GASTEIGER

@<TRIPOS>ATOM
      1 N          63.0075   89.5210   10.6683 N.am    1  UNL1       -0.2927
      2 C          61.5574   89.6447   10.3052 C.2     1  UNL1        0.2508
      3 O          60.7674   90.8333   10.7666 O.2     1  UNL1       -0.2700
      4 H          63.5259   88.7409   10.3654 H       1  UNL1        0.1502
      5 C          60.8972   88.5797    9.4805 C.ar    1  UNL1        0.1068
      6 C          59.7772   88.9385    8.5494 C.ar    1  UNL1        0.0108
      7 C          59.1171   87.8736    7.7248 C.ar    1  UNL1        0.0210
      8 C          59.5769   86.4498    7.8312 C.ar    1  UNL1        0.1021
      9 N          60.6969   86.0910    8.7623 N.ar    1  UNL1       -0.2097
     10 C          61.3571   87.1559    9.5869 C.ar    1  UNL1        0.2340
     11 O          62.4771   86.7970   10.5179 O.3     1  UNL1       -0.4351
     12 C          62.6129   85.3904   11.0207 C.ar    1  UNL1        0.1576
     13 C          62.1949   85.0505   12.4206 C.ar    1  UNL1        0.0384
     14 C          62.3308   83.6438   12.9233 C.ar    1  UNL1        0.0070
     15 C          62.8847   82.5769   12.0261 C.ar    1  UNL1        0.0725
     16 C          63.3028   82.9168   10.6261 C.ar    1  UNL1        0.0183
     17 C          63.1669   84.3235   10.1234 C.ar    1  UNL1        0.0921
     18 CL         63.5849   84.6633    8.7235 Cl      1  UNL1       -0.0791
     19 C          63.0206   81.1703   12.5288 C.3     1  UNL1        0.4186
     20 F          63.1565   79.7635   13.0314 F       1  UNL1       -0.1659
     21 F          63.2124   81.6873   13.9237 F       1  UNL1       -0.1659
     22 F          62.8288   80.6532   11.1338 F       1  UNL1       -0.1659
     23 C          63.6676   90.5860   11.4929 C.3     1  UNL1        0.1789
     24 C          63.9228   85.8173   16.4370 C.3     1  UNL1        0.0897
     25 N          63.7883   87.0329   15.5685 N.3     1  UNL1       -0.2686
     26 C          63.3706   88.3419   16.1701 C.3     1  UNL1        0.0939
     27 C          63.2361   89.5575   15.3016 C.3     1  UNL1        0.1108
     28 N          63.5191   89.4640   13.8315 N.am    1  UNL1       -0.2753
     29 C          63.3846   90.6796   12.9630 C.2     1  UNL1        0.2462
     30 O          62.9670   91.9886   13.5645 O.2     1  UNL1       -0.2730
     31 C          63.9367   88.1549   13.2300 C.3     1  UNL1        0.1108
     32 C          64.0713   86.9394   14.0985 C.3     1  UNL1        0.0939
     33 C          64.6108   91.5575   10.8475 C.3     1  UNL1        0.1715
     34 O          65.1761   92.6959   11.6440 O.3     1  UNL1       -0.3467
     35 C          66.6163   92.6759   12.0629 C.3     1  UNL1        0.1688
     36 C          66.9735   92.5630   13.5153 C.ar    1  UNL1        0.0112
     37 C          68.4085   92.4116   13.9252 C.ar    1  UNL1        0.0189
     38 C          68.7657   92.2988   15.3777 C.ar    1  UNL1        0.0996
     39 N          67.6880   92.3374   16.4203 N.ar    1  UNL1       -0.2325
     40 C          66.2530   92.4888   16.0104 C.ar    1  UNL1        0.1381
     41 CL         65.1753   92.5273   17.0530 Cl      1  UNL1       -0.0613
     42 C          65.8958   92.6016   14.5579 C.ar    1  UNL1        0.0290
@<TRIPOS>BOND
     1    24    25    1
     2    25    26    1
     3    26    27    1
     4    27    28    1
     5    28    29   am
     6    29    30    2
     7    29    23    1
     8    23    33    1
     9    33    34    1
    10    34    35    1
    11    35    36    1
    12    36    37   ar
    13    37    38   ar
    14    38    39   ar
    15    39    40   ar
    16    40    41    1
    17    40    42   ar
    18    23     1    1
    19     1     2   am
    20     2     3    2
    21     2     5    1
    22     5     6   ar
    23     6     7   ar
    24     7     8   ar
    25     8     9   ar
    26     9    10   ar
    27    10    11    1
    28    11    12    1
    29    12    13   ar
    30    13    14   ar
    31    14    15   ar
    32    15    19    1
    33    19    20    1
    34    19    21    1
    35    19    22    1
    36    15    16   ar
    37    16    17   ar
    38    17    18    1
    39    28    31    1
    40    31    32    1
    41    32    25    1
    42    42    36   ar
    43    10     5   ar
    44    17    12   ar
    45     1     4    1
@<TRIPOS>MOLECULE
*****
 42 45 0 0 0
SMALL
GASTEIGER

@<TRIPOS>ATOM
      1 N          62.7274   89.1010   10.6541 N.am    1  UNL1       -0.2927
      2 C          61.2522   89.0660   10.3846 C.2     1  UNL1        0.2508
      3 O          60.3181   89.8953   11.2152 O.2     1  UNL1       -0.2700
      4 H          63.3404   88.5567   10.1090 H       1  UNL1        0.1502
      5 C          60.7111   88.2016    9.2846 C.ar    1  UNL1        0.1068
      6 C          59.4198   88.5637    8.6126 C.ar    1  UNL1        0.0108
      7 C          58.8787   87.6994    7.5125 C.ar    1  UNL1        0.0210
      8 C          59.6287   86.4730    7.0845 C.ar    1  UNL1        0.1021
      9 N          60.9199   86.1109    7.7566 N.ar    1  UNL1       -0.2097
     10 C          61.4611   86.9752    8.8566 C.ar    1  UNL1        0.2340
     11 O          62.7523   86.6130    9.5286 O.3     1  UNL1       -0.4351
     12 C          62.8791   85.3070   10.2554 C.ar    1  UNL1        0.1576
     13 C          63.6169   84.1648    9.6221 C.ar    1  UNL1        0.0384
     14 C          63.7436   82.8588   10.3490 C.ar    1  UNL1        0.0070
     15 C          63.1325   82.6949   11.7090 C.ar    1  UNL1        0.0725
     16 C          62.3947   83.8371   12.3423 C.ar    1  UNL1        0.0183
     17 C          62.2680   85.1432   11.6155 C.ar    1  UNL1        0.0921
     18 CL         61.5301   86.2854   12.2487 Cl      1  UNL1       -0.0791
     19 C          63.2592   81.3889   12.4358 C.3     1  UNL1        0.4186
     20 F          63.3859   80.0829   13.1626 F       1  UNL1       -0.1659
     21 F          64.7525   81.5304   12.4296 F       1  UNL1       -0.1659
     22 F          61.7660   81.2475   12.4420 F       1  UNL1       -0.1659
     23 C          63.2685   89.9654   11.7542 C.3     1  UNL1        0.1789
     24 C          67.7795   93.7570   15.2932 C.3     1  UNL1        0.0897
     25 N          66.8148   93.1368   14.3265 N.3     1  UNL1       -0.2686
     26 C          66.5019   93.8270   13.0320 C.3     1  UNL1        0.0939
     27 C          65.5371   93.2068   12.0654 C.3     1  UNL1        0.1108
     28 N          64.8852   91.8962   12.3931 N.am    1  UNL1       -0.2753
     29 C          63.9204   91.2759   11.4264 C.2     1  UNL1        0.2462
     30 O          63.6075   91.9662   10.1320 O.2     1  UNL1       -0.2730
     31 C          65.1981   91.2060   13.6876 C.3     1  UNL1        0.1108
     32 C          66.1629   91.8262   14.6542 C.3     1  UNL1        0.0939
     33 C          63.1577   89.5192   13.1820 C.3     1  UNL1        0.1715
     34 O          64.2737   88.7405   13.8132 O.3     1  UNL1       -0.3467
     35 C          64.0202   87.9399   15.0560 C.3     1  UNL1        0.1688
     36 C          64.1957   86.4503   15.0374 C.ar    1  UNL1        0.0112
     37 C          65.5130   85.8552   14.6366 C.ar    1  UNL1        0.0189
     38 C          65.6884   84.3656   14.6180 C.ar    1  UNL1        0.0996
     39 N          64.5465   83.4711   15.0001 N.ar    1  UNL1       -0.2325
     40 C          63.2293   84.0662   15.4009 C.ar    1  UNL1        0.1381
     41 CL         62.0874   83.1717   15.7831 Cl      1  UNL1       -0.0613
     42 C          63.0538   85.5558   15.4196 C.ar    1  UNL1        0.0290
@<TRIPOS>BOND
     1    24    25    1
     2    25    26    1
     3    26    27    1
     4    27    28    1
     5    28    29   am
     6    29    30    2
     7    29    23    1
     8    23    33    1
     9    33    34    1
    10    34    35    1
    11    35    36    1
    12    36    37   ar
    13    37    38   ar
    14    38    39   ar
    15    39    40   ar
    16    40    41    1
    17    40    42   ar
    18    23     1    1
    19     1     2   am
    20     2     3    2
    21     2     5    1
    22     5     6   ar
    23     6     7   ar
    24     7     8   ar
    25     8     9   ar
    26     9    10   ar
    27    10    11    1
    28    11    12    1
    29    12    13   ar
    30    13    14   ar
    31    14    15   ar
    32    15    19    1
    33    19    20    1
    34    19    21    1
    35    19    22    1
    36    15    16   ar
    37    16    17   ar
    38    17    18    1
    39    28    31    1
    40    31    32    1
    41    32    25    1
    42    42    36   ar
    43    10     5   ar
    44    17    12   ar
    45     1     4    1
@<TRIPOS>MOLECULE
*****
 42 45 0 0 0
SMALL
GASTEIGER

@<TRIPOS>ATOM
      1 N          61.6782   85.8118   11.9860 N.am    1  UNL1       -0.2927
      2 C          62.0049   85.8173   10.5221 C.2     1  UNL1        0.2508
      3 O          63.3164   85.2682   10.0442 O.2     1  UNL1       -0.2700
      4 H          60.8174   86.1722   12.2997 H       1  UNL1        0.1502
      5 C          61.0200   86.3720    9.5359 C.ar    1  UNL1        0.1068
      6 C          60.7409   85.6351    8.2595 C.ar    1  UNL1        0.0108
      7 C          59.7561   86.1897    7.2734 C.ar    1  UNL1        0.0210
      8 C          59.0504   87.4811    7.5636 C.ar    1  UNL1        0.1021
      9 N          59.3296   88.2180    8.8400 N.ar    1  UNL1       -0.2097
     10 C          60.3144   87.6634    9.8262 C.ar    1  UNL1        0.2340
     11 O          60.5936   88.4002   11.1026 O.3     1  UNL1       -0.4351
     12 C          61.6898   89.4227   11.1539 C.ar    1  UNL1        0.1576
     13 C          62.3910   89.8345    9.8935 C.ar    1  UNL1        0.0384
     14 C          63.4873   90.8571    9.9449 C.ar    1  UNL1        0.0070
     15 C          63.8823   91.4678   11.2567 C.ar    1  UNL1        0.0725
     16 C          63.1810   91.0561   12.5171 C.ar    1  UNL1        0.0183
     17 C          62.0848   90.0336   12.4658 C.ar    1  UNL1        0.0921
     18 CL         61.3836   89.6218   13.7262 Cl      1  UNL1       -0.0791
     19 C          64.9785   92.4904   11.3081 C.3     1  UNL1        0.4186
     20 F          66.0748   93.5130   11.3595 F       1  UNL1       -0.1659
     21 F          65.2875   92.2317    9.8633 F       1  UNL1       -0.1659
     22 F          64.6694   92.7491   12.7529 F       1  UNL1       -0.1659
     23 C          62.6631   85.2571   12.9722 C.3     1  UNL1        0.1789
     24 C          62.9026   78.7433   10.7900 C.3     1  UNL1        0.0897
     25 N          62.7687   80.0502   11.5138 N.3     1  UNL1       -0.2686
     26 C          62.3389   80.0712   12.9507 C.3     1  UNL1        0.0939
     27 C          62.2050   81.3782   13.6745 C.3     1  UNL1        0.1108
     28 N          62.5010   82.6642   12.9615 N.am    1  UNL1       -0.2753
     29 C          62.3671   83.9711   13.6853 C.2     1  UNL1        0.2462
     30 O          61.9373   83.9921   15.1222 O.2     1  UNL1       -0.2730
     31 C          62.9308   82.6432   11.5246 C.3     1  UNL1        0.1108
     32 C          63.0647   81.3363   10.8007 C.3     1  UNL1        0.0939
     33 C          63.9439   85.9886   13.2453 C.3     1  UNL1        0.1715
     34 O          63.9158   87.4499   13.5829 O.3     1  UNL1       -0.3467
     35 C          64.1532   87.8982   14.9945 C.3     1  UNL1        0.1688
     36 C          64.4716   89.3356   15.2814 C.ar    1  UNL1        0.0112
     37 C          63.5864   90.1323   16.1935 C.ar    1  UNL1        0.0189
     38 C          63.9048   91.5697   16.4803 C.ar    1  UNL1        0.0996
     39 N          65.1083   92.2106   15.8552 N.ar    1  UNL1       -0.2325
     40 C          65.9935   91.4140   14.9432 C.ar    1  UNL1        0.1381
     41 CL         67.1970   92.0548   14.3180 Cl      1  UNL1       -0.0613
     42 C          65.6751   89.9765   14.6562 C.ar    1  UNL1        0.0290
@<TRIPOS>BOND
     1    24    25    1
     2    25    26    1
     3    26    27    1
     4    27    28    1
     5    28    29   am
     6    29    30    2
     7    29    23    1
     8    23    33    1
     9    33    34    1
    10    34    35    1
    11    35    36    1
    12    36    37   ar
    13    37    38   ar
    14    38    39   ar
    15    39    40   ar
    16    40    41    1
    17    40    42   ar
    18    23     1    1
    19     1     2   am
    20     2     3    2
    21     2     5    1
    22     5     6   ar
    23     6     7   ar
    24     7     8   ar
    25     8     9   ar
    26     9    10   ar
    27    10    11    1
    28    11    12    1
    29    12    13   ar
    30    13    14   ar
    31    14    15   ar
    32    15    19    1
    33    19    20    1
    34    19    21    1
    35    19    22    1
    36    15    16   ar
    37    16    17   ar
    38    17    18    1
    39    28    31    1
    40    31    32    1
    41    32    25    1
    42    42    36   ar
    43    10     5   ar
    44    17    12   ar
    45     1     4    1
