@<TRIPOS>MOLECULE
*****
 24 27 0 0 0
SMALL
GASTEIGER

@<TRIPOS>ATOM
      1 C          66.2085   92.9830   12.2418 C.2     1  UNL1        0.1352
      2 C          66.7604   92.9915   13.6364 C.2     1  UNL1        0.0355
      3 C          66.1438   92.1226   14.6924 C.2     1  UNL1        0.0216
      4 C          64.9753   91.2452   14.3535 C.2     1  UNL1        0.0793
      5 N          64.1657   90.2890   15.1782 N.2     1  UNL1       -0.2439
      6 C          63.1135   89.6896   14.2932 C.2     1  UNL1        0.1050
      7 C          63.2727   90.2753   12.9215 C.2     1  UNL1        0.0938
      8 C          64.4234   91.2368   12.9587 C.2     1  UNL1        0.0251
      9 C          65.0400   92.1056   11.9029 C.3     1  UNL1        0.1600
     10 CL         64.4881   92.0972   10.5081 Cl      1  UNL1       -0.1019
     11 C          66.4162   95.2900   11.0652 C.3     1  UNL1        0.2520
     12 O          66.8251   93.8519   11.1858 O.2     1  UNL1       -0.4741
     13 C          62.4293   89.9556   11.7229 C.2     1  UNL1        0.3425
     14 O          61.1946   90.7586   11.4391 O.2     1  UNL1       -0.2448
     15 O          62.8206   88.8330   10.8082 O.3     1  UNL1       -0.4454
     16 C          62.1107   87.5145   10.8930 C.3     1  UNL1        0.2087
     17 C          61.3709   86.9830    9.7012 C.3     1  UNL1        0.0445
     18 C          59.9482   87.3917    9.4582 C.3     1  UNL1        0.0210
     19 C          59.2084   86.8602    8.2664 C.3     1  UNL1        0.0722
     20 N          59.8913   85.9202    7.3177 N.3     1  UNL1       -0.2727
     21 C          61.3139   85.5115    7.5607 C.3     1  UNL1        0.0722
     22 C          62.0537   86.0430    8.7525 C.3     1  UNL1        0.0210
     23 C          60.3375   86.1851    7.9569 C.3     1  UNL1        0.0722
     24 C          61.0064   86.6657    9.0345 C.3     1  UNL1        0.0210
@<TRIPOS>BOND
     1    11    12    1
     2    12     1    1
     3     1     2    2
     4     2     3    1
     5     3     4    2
     6     4     5    1
     7     5     6    2
     8     6     7    1
     9     7    13    1
    10    13    14    2
    11    13    15    1
    12    15    16    1
    13    16    17    1
    14    17    18    1
    15    18    19    1
    16    19    20    1
    17    20    21    1
    18    21    22    1
    19    20    23    1
    20    23    24    1
    21     7     8    2
    22     8     9    1
    23     9    10    1
    24     9     1    1
    25     8     4    1
    26    22    17    1
    27    24    17    1
@<TRIPOS>MOLECULE
*****
 24 27 0 0 0
SMALL
GASTEIGER

@<TRIPOS>ATOM
      1 C          62.0511   86.1207   10.2280 C.2     1  UNL1        0.1352
      2 C          62.6031   85.6912    8.9012 C.2     1  UNL1        0.0355
      3 C          63.4510   84.4575    8.8053 C.2     1  UNL1        0.0216
      4 C          63.7468   83.6533   10.0364 C.2     1  UNL1        0.0793
      5 N          64.5454   82.4016   10.2498 N.2     1  UNL1       -0.2439
      6 C          64.4869   82.0575   11.7086 C.2     1  UNL1        0.1050
      7 C          63.6522   83.0965   12.3969 C.2     1  UNL1        0.0938
      8 C          63.1948   84.0828   11.3634 C.2     1  UNL1        0.0251
      9 C          62.3469   85.3165   11.4592 C.3     1  UNL1        0.1600
     10 CL         61.7949   85.7460   12.7862 Cl      1  UNL1       -0.1019
     11 C          61.7963   88.6976   10.0176 C.3     1  UNL1        0.2520
     12 O          61.2032   87.3544   10.3239 O.2     1  UNL1       -0.4741
     13 C          63.3313   83.1414   13.8614 C.2     1  UNL1        0.3425
     14 O          62.0208   82.6073   14.3587 O.2     1  UNL1       -0.2448
     15 O          64.3208   83.7203   14.8287 O.3     1  UNL1       -0.4454
     16 C          64.8769   85.0945   14.6003 C.3     1  UNL1        0.2087
     17 C          64.2648   86.2760   15.2926 C.3     1  UNL1        0.0445
     18 C          63.4873   86.0821   16.5608 C.3     1  UNL1        0.0210
     19 C          62.8751   87.2636   17.2532 C.3     1  UNL1        0.0722
     20 N          63.0404   88.6389   16.6775 N.3     1  UNL1       -0.2727
     21 C          63.8178   88.8327   15.4094 C.3     1  UNL1        0.0722
     22 C          64.4300   87.6512   14.7170 C.3     1  UNL1        0.0210
     23 C          63.3941   88.0220   16.2623 C.3     1  UNL1        0.0722
     24 C          63.9477   86.9537   15.6362 C.3     1  UNL1        0.0210
@<TRIPOS>BOND
     1    11    12    1
     2    12     1    1
     3     1     2    2
     4     2     3    1
     5     3     4    2
     6     4     5    1
     7     5     6    2
     8     6     7    1
     9     7    13    1
    10    13    14    2
    11    13    15    1
    12    15    16    1
    13    16    17    1
    14    17    18    1
    15    18    19    1
    16    19    20    1
    17    20    21    1
    18    21    22    1
    19    20    23    1
    20    23    24    1
    21     7     8    2
    22     8     9    1
    23     9    10    1
    24     9     1    1
    25     8     4    1
    26    22    17    1
    27    24    17    1
@<TRIPOS>MOLECULE
*****
 24 27 0 0 0
SMALL
GASTEIGER

@<TRIPOS>ATOM
      1 C          66.0506   92.4705   14.3116 C.2     1  UNL1        0.1352
      2 C          66.4728   93.5456   13.3548 C.2     1  UNL1        0.0355
      3 C          65.9161   93.5712   11.9621 C.2     1  UNL1        0.0216
      4 C          64.9373   92.5214   11.5264 C.2     1  UNL1        0.0793
      5 N          64.2246   92.2913   10.2267 N.2     1  UNL1       -0.2439
      6 C          63.3620   91.0739   10.3803 C.2     1  UNL1        0.1050
      7 C          63.5415   90.5515   11.7750 C.2     1  UNL1        0.0938
      8 C          64.5151   91.4462   12.4833 C.2     1  UNL1        0.0251
      9 C          65.0718   91.4207   13.8759 C.3     1  UNL1        0.1600
     10 CL         64.6496   90.3455   14.8328 Cl      1  UNL1       -0.1019
     11 C          68.0607   92.1475   15.9257 C.3     1  UNL1        0.2520
     12 O          66.6072   92.4449   15.7044 O.2     1  UNL1       -0.4741
     13 C          62.8660   89.3462   12.3588 C.2     1  UNL1        0.3425
     14 O          63.6820   88.2781   13.0245 O.2     1  UNL1       -0.2448
     15 O          61.3745   89.2090   12.2768 O.3     1  UNL1       -0.4454
     16 C          60.7569   88.3674   11.1998 C.3     1  UNL1        0.2087
     17 C          61.4903   87.1712   10.6694 C.3     1  UNL1        0.0445
     18 C          61.6899   85.9667   11.5408 C.3     1  UNL1        0.0210
     19 C          62.4234   84.7705   11.0105 C.3     1  UNL1        0.0722
     20 N          62.9572   84.7789    9.6086 N.3     1  UNL1       -0.2727
     21 C          62.7576   85.9834    8.7372 C.3     1  UNL1        0.0722
     22 C          62.0242   87.1796    9.2676 C.3     1  UNL1        0.0210
     23 C          62.5619   85.4579    9.8551 C.3     1  UNL1        0.0722
     24 C          61.8987   86.5394   10.3347 C.3     1  UNL1        0.0210
@<TRIPOS>BOND
     1    11    12    1
     2    12     1    1
     3     1     2    2
     4     2     3    1
     5     3     4    2
     6     4     5    1
     7     5     6    2
     8     6     7    1
     9     7    13    1
    10    13    14    2
    11    13    15    1
    12    15    16    1
    13    16    17    1
    14    17    18    1
    15    18    19    1
    16    19    20    1
    17    20    21    1
    18    21    22    1
    19    20    23    1
    20    23    24    1
    21     7     8    2
    22     8     9    1
    23     9    10    1
    24     9     1    1
    25     8     4    1
    26    22    17    1
    27    24    17    1
@<TRIPOS>MOLECULE
*****
 24 27 0 0 0
SMALL
GASTEIGER

@<TRIPOS>ATOM
      1 C          62.4190   88.8035   10.4382 C.2     1  UNL1        0.1352
      2 C          62.5837   90.2384   10.0336 C.2     1  UNL1        0.0355
      3 C          63.2008   91.2200   10.9854 C.2     1  UNL1        0.0216
      4 C          63.6531   90.7665   12.3418 C.2     1  UNL1        0.0793
      5 N          64.2912   91.5000   13.4841 N.2     1  UNL1       -0.2439
      6 C          64.5208   90.5182   14.5947 C.2     1  UNL1        0.1050
      7 C          64.0246   89.1781   14.1388 C.2     1  UNL1        0.0938
      8 C          63.4883   89.3316   12.7464 C.2     1  UNL1        0.0251
      9 C          62.8713   88.3501   11.7946 C.3     1  UNL1        0.1600
     10 CL         62.7065   86.9151   12.1992 Cl      1  UNL1       -0.1019
     11 C          60.3094   87.7082    9.3896 C.3     1  UNL1        0.2520
     12 O          61.8019   87.8219    9.4865 O.2     1  UNL1       -0.4741
     13 C          64.0587   87.9076   14.9355 C.2     1  UNL1        0.3425
     14 O          63.3080   87.8142   16.2307 O.2     1  UNL1       -0.2448
     15 O          64.8435   86.7305   14.4369 O.3     1  UNL1       -0.4454
     16 C          64.7109   85.3992   15.1150 C.3     1  UNL1        0.2087
     17 C          63.9946   84.2751   14.4271 C.3     1  UNL1        0.0445
     18 C          64.4235   83.8395   13.0572 C.3     1  UNL1        0.0210
     19 C          63.7072   82.7154   12.3692 C.3     1  UNL1        0.0722
     20 N          62.5621   82.0268   13.0510 N.3     1  UNL1       -0.2727
     21 C          62.1333   82.4624   14.4208 C.3     1  UNL1        0.0722
     22 C          62.8496   83.5866   15.1088 C.3     1  UNL1        0.0210
     23 C          62.9240   82.6378   13.4679 C.3     1  UNL1        0.0722
     24 C          63.5717   83.6543   14.0899 C.3     1  UNL1        0.0210
@<TRIPOS>BOND
     1    11    12    1
     2    12     1    1
     3     1     2    2
     4     2     3    1
     5     3     4    2
     6     4     5    1
     7     5     6    2
     8     6     7    1
     9     7    13    1
    10    13    14    2
    11    13    15    1
    12    15    16    1
    13    16    17    1
    14    17    18    1
    15    18    19    1
    16    19    20    1
    17    20    21    1
    18    21    22    1
    19    20    23    1
    20    23    24    1
    21     7     8    2
    22     8     9    1
    23     9    10    1
    24     9     1    1
    25     8     4    1
    26    22    17    1
    27    24    17    1
@<TRIPOS>MOLECULE
*****
 24 27 0 0 0
SMALL
GASTEIGER

@<TRIPOS>ATOM
      1 C          66.1193   92.4470   14.4812 C.2     1  UNL1        0.1352
      2 C          66.6081   93.4983   13.5296 C.2     1  UNL1        0.0355
      3 C          66.0721   93.5504   12.1296 C.2     1  UNL1        0.0216
      4 C          65.0472   92.5510   11.6813 C.2     1  UNL1        0.0793
      5 N          64.3413   92.3558   10.3723 N.2     1  UNL1       -0.2439
      6 C          63.4162   91.1837   10.5150 C.2     1  UNL1        0.1050
      7 C          63.5504   90.6546   11.9121 C.2     1  UNL1        0.0938
      8 C          64.5585   91.4997   12.6330 C.2     1  UNL1        0.0251
      9 C          65.0945   91.4476   14.0329 C.3     1  UNL1        0.1600
     10 CL         64.6057   90.3963   14.9846 Cl      1  UNL1       -0.1019
     11 C          68.1359   92.3447   16.1161 C.3     1  UNL1        0.2520
     12 O          66.6553   92.3949   15.8813 O.2     1  UNL1       -0.4741
     13 C          62.8070   89.4856   12.4874 C.2     1  UNL1        0.3425
     14 O          63.4859   88.1542   12.6147 O.2     1  UNL1       -0.2448
     15 O          61.3847   89.6481   12.9354 O.3     1  UNL1       -0.4454
     16 C          60.2797   89.6922   11.9221 C.3     1  UNL1        0.2087
     17 C          60.3350   88.8063   10.7130 C.3     1  UNL1        0.0445
     18 C          60.0845   89.3809    9.3502 C.3     1  UNL1        0.0210
     19 C          60.1398   88.4950    8.1409 C.3     1  UNL1        0.0722
     20 N          60.4456   87.0345    8.2946 N.3     1  UNL1       -0.2727
     21 C          60.6960   86.4599    9.6573 C.3     1  UNL1        0.0722
     22 C          60.6407   87.3458   10.8665 C.3     1  UNL1        0.0210
     23 C          60.4261   87.4804    8.9865 C.3     1  UNL1        0.0722
     24 C          60.3761   88.2815   10.0799 C.3     1  UNL1        0.0210
@<TRIPOS>BOND
     1    11    12    1
     2    12     1    1
     3     1     2    2
     4     2     3    1
     5     3     4    2
     6     4     5    1
     7     5     6    2
     8     6     7    1
     9     7    13    1
    10    13    14    2
    11    13    15    1
    12    15    16    1
    13    16    17    1
    14    17    18    1
    15    18    19    1
    16    19    20    1
    17    20    21    1
    18    21    22    1
    19    20    23    1
    20    23    24    1
    21     7     8    2
    22     8     9    1
    23     9    10    1
    24     9     1    1
    25     8     4    1
    26    22    17    1
    27    24    17    1
@<TRIPOS>MOLECULE
*****
 24 27 0 0 0
SMALL
GASTEIGER

@<TRIPOS>ATOM
      1 C          65.6648   91.7437   13.9852 C.2     1  UNL1        0.1352
      2 C          66.1826   92.8200   13.0779 C.2     1  UNL1        0.0355
      3 C          65.6103   92.9795   11.7005 C.2     1  UNL1        0.0216
      4 C          64.5202   92.0626   11.2306 C.2     1  UNL1        0.0793
      5 N          63.7674   91.9794    9.9359 N.2     1  UNL1       -0.2439
      6 C          62.7843   90.8515   10.0431 C.2     1  UNL1        0.1050
      7 C          62.9295   90.2377   11.4040 C.2     1  UNL1        0.0938
      8 C          64.0024   90.9863   12.1380 C.2     1  UNL1        0.0251
      9 C          64.5747   90.8268   13.5153 C.3     1  UNL1        0.1600
     10 CL         64.0569   89.7505   14.4227 Cl      1  UNL1       -0.1019
     11 C          66.9937   92.7141   15.9958 C.3     1  UNL1        0.2520
     12 O          66.2372   91.5842   15.3626 O.2     1  UNL1       -0.4741
     13 C          62.1404   89.0789   11.9374 C.2     1  UNL1        0.3425
     14 O          60.7551   89.2966   12.4698 O.2     1  UNL1       -0.2448
     15 O          62.7366   87.7025   11.9383 O.3     1  UNL1       -0.4454
     16 C          61.9595   86.5482   11.3784 C.3     1  UNL1        0.2087
     17 C          62.5875   85.1882   11.3011 C.3     1  UNL1        0.0445
     18 C          63.1779   84.7072   10.0087 C.3     1  UNL1        0.0210
     19 C          63.8059   83.3472    9.9313 C.3     1  UNL1        0.0722
     20 N          63.8437   82.4683   11.1462 N.3     1  UNL1       -0.2727
     21 C          63.2534   82.9493   12.4386 C.3     1  UNL1        0.0722
     22 C          62.6253   84.3093   12.5160 C.3     1  UNL1        0.0210
     23 C          63.4888   83.2057   11.2374 C.3     1  UNL1        0.0722
     24 C          62.9209   84.4354   11.3073 C.3     1  UNL1        0.0210
@<TRIPOS>BOND
     1    11    12    1
     2    12     1    1
     3     1     2    2
     4     2     3    1
     5     3     4    2
     6     4     5    1
     7     5     6    2
     8     6     7    1
     9     7    13    1
    10    13    14    2
    11    13    15    1
    12    15    16    1
    13    16    17    1
    14    17    18    1
    15    18    19    1
    16    19    20    1
    17    20    21    1
    18    21    22    1
    19    20    23    1
    20    23    24    1
    21     7     8    2
    22     8     9    1
    23     9    10    1
    24     9     1    1
    25     8     4    1
    26    22    17    1
    27    24    17    1
@<TRIPOS>MOLECULE
*****
 24 27 0 0 0
SMALL
GASTEIGER

@<TRIPOS>ATOM
      1 C          63.7871   83.0918   12.3205 C.2     1  UNL1        0.1352
      2 C          64.2127   82.3484   11.0893 C.2     1  UNL1        0.0355
      3 C          63.9866   82.9503    9.7340 C.2     1  UNL1        0.0216
      4 C          63.3350   84.2957    9.6102 C.2     1  UNL1        0.0793
      5 N          62.9847   85.1352    8.4175 N.2     1  UNL1       -0.2439
      6 C          62.3425   86.3975    8.9118 C.2     1  UNL1        0.1050
      7 C          62.2961   86.3382   10.4099 C.2     1  UNL1        0.0938
      8 C          62.9095   85.0392   10.8415 C.2     1  UNL1        0.0251
      9 C          63.1355   84.4372   12.1967 C.3     1  UNL1        0.1600
     10 CL         62.7100   85.1806   13.4281 Cl      1  UNL1       -0.1019
     11 C          63.4451   81.1403   14.0012 C.3     1  UNL1        0.2520
     12 O          64.0132   82.4899   13.6758 O.2     1  UNL1       -0.4741
     13 C          61.7348   87.3927   11.3170 C.2     1  UNL1        0.3425
     14 O          60.2497   87.5350   11.4728 O.2     1  UNL1       -0.2448
     15 O          62.6585   88.3049   12.0684 O.3     1  UNL1       -0.4454
     16 C          62.3809   89.7780   12.1184 C.3     1  UNL1        0.2087
     17 C          63.5174   90.7567   12.0954 C.3     1  UNL1        0.0445
     18 C          63.8640   91.4738   10.8243 C.3     1  UNL1        0.0210
     19 C          65.0005   92.4525   10.8012 C.3     1  UNL1        0.0722
     20 N          65.7905   92.7141   12.0493 N.3     1  UNL1       -0.2727
     21 C          65.4439   91.9969   13.3203 C.3     1  UNL1        0.0722
     22 C          64.3074   91.0183   13.3434 C.3     1  UNL1        0.0210
     23 C          65.1764   92.1690   12.1108 C.3     1  UNL1        0.0722
     24 C          64.1487   91.2841   12.1316 C.3     1  UNL1        0.0210
@<TRIPOS>BOND
     1    11    12    1
     2    12     1    1
     3     1     2    2
     4     2     3    1
     5     3     4    2
     6     4     5    1
     7     5     6    2
     8     6     7    1
     9     7    13    1
    10    13    14    2
    11    13    15    1
    12    15    16    1
    13    16    17    1
    14    17    18    1
    15    18    19    1
    16    19    20    1
    17    20    21    1
    18    21    22    1
    19    20    23    1
    20    23    24    1
    21     7     8    2
    22     8     9    1
    23     9    10    1
    24     9     1    1
    25     8     4    1
    26    22    17    1
    27    24    17    1
@<TRIPOS>MOLECULE
*****
 24 27 0 0 0
SMALL
GASTEIGER

@<TRIPOS>ATOM
      1 C          61.6761   89.6571   11.9779 C.2     1  UNL1        0.1352
      2 C          60.6742   90.6122   11.4002 C.2     1  UNL1        0.0355
      3 C          59.9599   90.2703   10.1262 C.2     1  UNL1        0.0216
      4 C          60.2477   88.9732    9.4300 C.2     1  UNL1        0.0793
      5 N          59.7039   88.3684    8.1697 N.2     1  UNL1       -0.2439
      6 C          60.3697   87.0394    7.9685 C.2     1  UNL1        0.1050
      7 C          61.3250   86.8229    9.1045 C.2     1  UNL1        0.0938
      8 C          61.2496   88.0180   10.0078 C.2     1  UNL1        0.0251
      9 C          61.9638   88.3600   11.2817 C.3     1  UNL1        0.1600
     10 CL         62.9658   87.4048   11.8595 Cl      1  UNL1       -0.1019
     11 C          63.6930   90.7414   13.2053 C.3     1  UNL1        0.2520
     12 O          62.3904   89.9990   13.2519 O.2     1  UNL1       -0.4741
     13 C          62.2018   85.6220    9.3024 C.2     1  UNL1        0.3425
     14 O          63.2770   85.3059    8.3054 O.2     1  UNL1       -0.2448
     15 O          62.0035   84.7373   10.4974 O.3     1  UNL1       -0.4454
     16 C          63.1329   83.8851   10.9953 C.3     1  UNL1        0.2087
     17 C          62.8990   82.9032   12.1049 C.3     1  UNL1        0.0445
     18 C          62.6832   83.3926   13.5063 C.3     1  UNL1        0.0210
     19 C          62.4493   82.4107   14.6159 C.3     1  UNL1        0.0722
     20 N          62.4311   80.9394   14.3241 N.3     1  UNL1       -0.2727
     21 C          62.6468   80.4501   12.9227 C.3     1  UNL1        0.0722
     22 C          62.8808   81.4319   11.8131 C.3     1  UNL1        0.0210
     23 C          62.5631   81.4393   13.6832 C.3     1  UNL1        0.0722
     24 C          62.7746   82.3272   12.6800 C.3     1  UNL1        0.0210
@<TRIPOS>BOND
     1    11    12    1
     2    12     1    1
     3     1     2    2
     4     2     3    1
     5     3     4    2
     6     4     5    1
     7     5     6    2
     8     6     7    1
     9     7    13    1
    10    13    14    2
    11    13    15    1
    12    15    16    1
    13    16    17    1
    14    17    18    1
    15    18    19    1
    16    19    20    1
    17    20    21    1
    18    21    22    1
    19    20    23    1
    20    23    24    1
    21     7     8    2
    22     8     9    1
    23     9    10    1
    24     9     1    1
    25     8     4    1
    26    22    17    1
    27    24    17    1
@<TRIPOS>MOLECULE
*****
 24 27 0 0 0
SMALL
GASTEIGER

@<TRIPOS>ATOM
      1 C          61.9189   85.9941    9.3639 C.2     1  UNL1        0.1352
      2 C          62.7312   85.2394    8.3538 C.2     1  UNL1        0.0355
      3 C          63.6755   84.1639    8.8028 C.2     1  UNL1        0.0216
      4 C          63.8074   83.8431   10.2622 C.2     1  UNL1        0.0793
      5 N          64.6494   82.8432   10.9979 N.2     1  UNL1       -0.2439
      6 C          64.3575   82.9800   12.4628 C.2     1  UNL1        0.1050
      7 C          63.3351   84.0644   12.6325 C.2     1  UNL1        0.0938
      8 C          62.9951   84.5979   11.2724 C.2     1  UNL1        0.0251
      9 C          62.0509   85.6733   10.8233 C.3     1  UNL1        0.1600
     10 CL         61.2386   86.4281   11.8335 Cl      1  UNL1       -0.1019
     11 C          59.6141   86.7055    8.3987 C.3     1  UNL1        0.2520
     12 O          60.9746   87.0696    8.9149 O.2     1  UNL1       -0.4741
     13 C          62.7546   84.5330   13.9338 C.2     1  UNL1        0.3425
     14 O          61.7076   83.7123   14.6268 O.2     1  UNL1       -0.2448
     15 O          63.2210   85.8224   14.5421 O.3     1  UNL1       -0.4454
     16 C          64.2064   86.6839   13.8096 C.3     1  UNL1        0.2087
     17 C          64.0314   88.1736   13.7903 C.3     1  UNL1        0.0445
     18 C          64.4516   88.9934   14.9742 C.3     1  UNL1        0.0210
     19 C          64.2766   90.4831   14.9550 C.3     1  UNL1        0.0722
     20 N          63.6815   91.1529   13.7519 N.3     1  UNL1       -0.2727
     21 C          63.2614   90.3331   12.5681 C.3     1  UNL1        0.0722
     22 C          63.4364   88.8434   12.5873 C.3     1  UNL1        0.0210
     23 C          63.7577   90.3338   13.7160 C.3     1  UNL1        0.0722
     24 C          63.9159   88.9868   13.7335 C.3     1  UNL1        0.0210
@<TRIPOS>BOND
     1    11    12    1
     2    12     1    1
     3     1     2    2
     4     2     3    1
     5     3     4    2
     6     4     5    1
     7     5     6    2
     8     6     7    1
     9     7    13    1
    10    13    14    2
    11    13    15    1
    12    15    16    1
    13    16    17    1
    14    17    18    1
    15    18    19    1
    16    19    20    1
    17    20    21    1
    18    21    22    1
    19    20    23    1
    20    23    24    1
    21     7     8    2
    22     8     9    1
    23     9    10    1
    24     9     1    1
    25     8     4    1
    26    22    17    1
    27    24    17    1
