@<TRIPOS>MOLECULE
*****
 48 54 0 0 0
SMALL
GASTEIGER

@<TRIPOS>ATOM
      1 C          60.8825   86.3982    9.0371 C.3     1  UNL1        0.0194
      2 C          60.6849   87.8520    9.3490 C.3     1  UNL1        0.0041
      3 C          59.7298   88.6712    8.5325 C.3     1  UNL1        0.0008
      4 C          58.9723   88.0365    7.4041 C.3     1  UNL1        0.0000
      5 C          59.1699   86.5827    7.0922 C.3     1  UNL1        0.0008
      6 C          61.1192   87.2809    9.6459 C.3     1  UNL1        0.0086
      7 C          61.4425   88.4867   10.4774 C.3     1  UNL1        0.0694
      8 C          60.4874   89.3058    9.6609 C.3     1  UNL1        0.0086
      9 C          61.6400   87.0329   10.1655 C.3     1  UNL1        0.0127
     10 C          60.1249   85.7635    7.9087 C.3     1  UNL1        0.0041
     11 C          62.2000   89.1213   11.6059 C.2     1  UNL1        0.2250
     12 O          62.0924   88.5580   12.9919 O.2     1  UNL1       -0.2749
     13 N          63.0651   90.3193   11.3483 N.am    1  UNL1       -0.2751
     14 C          63.1727   90.8827    9.9622 C.3     1  UNL1        0.0984
     15 C          64.0379   92.0807    9.7046 C.3     1  UNL1        0.0477
     16 C          64.7954   92.7153   10.8330 C.ar    1  UNL1       -0.0196
     17 C          65.6605   93.9134   10.5754 C.ar    1  UNL1        0.0356
     18 C          66.4181   94.5480   11.7038 C.ar    1  UNL1        0.1721
     19 C          66.3105   93.9846   13.0899 C.ar    1  UNL1        0.1721
     20 C          65.4454   92.7867   13.3475 C.ar    1  UNL1        0.0371
     21 C          64.6878   92.1520   12.2191 C.ar    1  UNL1       -0.0030
     22 C          63.8227   90.9540   12.4767 C.3     1  UNL1        0.1199
     23 O          67.2832   95.7460   11.4462 O.3     1  UNL1       -0.4684
     24 C          66.8865   96.7470   10.4019 C.3     1  UNL1        0.2526
     25 O          67.0680   94.6193   14.2183 O.3     1  UNL1       -0.4684
     26 C          67.7230   93.7601   15.2588 C.3     1  UNL1        0.2526
     27 C          63.7479   83.9405   11.4866 C.ar    1  UNL1        0.1393
     28 C          63.9510   84.0755   10.0065 C.ar    1  UNL1        0.0366
     29 C          62.9959   84.8947    9.1901 C.ar    1  UNL1       -0.0012
     30 C          61.8376   85.5790    9.8536 C.ar    1  UNL1       -0.0226
     31 C          61.6345   85.4440   11.3336 C.ar    1  UNL1       -0.0012
     32 C          62.5896   84.6247   12.1502 C.ar    1  UNL1        0.0366
     33 O          64.7030   83.1213   12.3030 O.3     1  UNL1       -0.4656
     34 C          64.8297   83.3655   13.7776 C.3     1  UNL1        0.2897
     35 N          63.7040   85.5667   14.5760 N.am    1  UNL1       -0.2807
     36 C          64.9427   84.7676   14.2987 C.2     1  UNL1        0.2707
     37 O          66.2944   85.3704   14.5424 O.2     1  UNL1       -0.2707
     38 H          62.8168   85.1710   14.4160 H       1  UNL1        0.1550
     39 C          63.1242   87.3536   16.3706 C.ar    1  UNL1        0.0891
     40 C          63.2372   88.7556   16.8917 C.ar    1  UNL1        0.0077
     41 C          64.0429   89.7728   16.1393 C.ar    1  UNL1        0.0003
     42 C          64.7357   89.3879   14.8657 C.ar    1  UNL1        0.0013
     43 C          64.6227   87.9858   14.3446 C.ar    1  UNL1        0.0149
     44 C          63.8170   86.9687   15.0971 C.ar    1  UNL1        0.0566
     45 C          62.3184   86.3365   17.1231 C.2     1  UNL1        0.3425
     46 O          62.3808   86.2892   18.6211 O.2     1  UNL1       -0.2448
     47 C          61.9937   84.0267   15.9789 C.3     1  UNL1        0.2560
     48 O          61.4502   85.3667   16.3776 O.3     1  UNL1       -0.4413
@<TRIPOS>BOND
     1    47    48    1
     2    48    45    1
     3    45    46    2
     4    45    39    1
     5    39    40   ar
     6    40    41   ar
     7    41    42   ar
     8    42    43   ar
     9    43    44   ar
    10    44    35    1
    11    35    36   am
    12    36    37    2
    13    36    34    1
    14    34    33    1
    15    33    27    1
    16    27    28   ar
    17    28    29   ar
    18    29    30   ar
    19    30     1    1
    20     1     2    1
    21     2     3    1
    22     3     4    1
    23     4     5    1
    24     5     6    1
    25     6     7    1
    26     7    11    1
    27    11    12    2
    28    11    13   am
    29    13    14    1
    30    14    15    1
    31    15    16    1
    32    16    17   ar
    33    17    18   ar
    34    18    23    1
    35    23    24    1
    36    18    19   ar
    37    19    25    1
    38    25    26    1
    39    19    20   ar
    40    20    21   ar
    41    21    22    1
    42     7     8    1
    43     7     9    1
    44     5    10    1
    45    30    31   ar
    46    31    32   ar
    47    44    39   ar
    48    32    27   ar
    49     9     1    1
    50    10     1    1
    51     8     3    1
    52    22    13    1
    53    21    16   ar
    54    35    38    1
@<TRIPOS>MOLECULE
*****
 48 54 0 0 0
SMALL
GASTEIGER

@<TRIPOS>ATOM
      1 C          60.9081   86.4691    8.7604 C.3     1  UNL1        0.0194
      2 C          60.8271   87.8995    9.2045 C.3     1  UNL1        0.0041
      3 C          59.8642   88.8379    8.5396 C.3     1  UNL1        0.0008
      4 C          58.9822   88.3458    7.4305 C.3     1  UNL1        0.0000
      5 C          59.0632   86.9153    6.9864 C.3     1  UNL1        0.0008
      6 C          61.2467   87.2816    9.4169 C.3     1  UNL1        0.0086
      7 C          61.7091   88.3916   10.3136 C.3     1  UNL1        0.0694
      8 C          60.7461   89.3300    9.6486 C.3     1  UNL1        0.0086
      9 C          61.7901   86.9612    9.8695 C.3     1  UNL1        0.0127
     10 C          60.0262   85.9770    7.6514 C.3     1  UNL1        0.0041
     11 C          62.5910   88.8837   11.4226 C.2     1  UNL1        0.2250
     12 O          62.7627   88.0614   12.6653 O.2     1  UNL1       -0.2749
     13 N          63.3013   90.1981   11.2890 N.am    1  UNL1       -0.2751
     14 C          63.1296   91.0205   10.0462 C.3     1  UNL1        0.0984
     15 C          63.8398   92.3348    9.9126 C.3     1  UNL1        0.0477
     16 C          64.7218   92.8269   11.0217 C.ar    1  UNL1       -0.0196
     17 C          65.4321   94.1414   10.8880 C.ar    1  UNL1        0.0356
     18 C          66.3140   94.6335   11.9970 C.ar    1  UNL1        0.1721
     19 C          66.4857   93.8111   13.2398 C.ar    1  UNL1        0.1721
     20 C          65.7755   92.4968   13.3734 C.ar    1  UNL1        0.0371
     21 C          64.8935   92.0047   12.2643 C.ar    1  UNL1       -0.0030
     22 C          64.1832   90.6902   12.3980 C.3     1  UNL1        0.1199
     23 O          67.0243   95.9479   11.8634 O.3     1  UNL1       -0.4684
     24 C          66.7567   96.8279   10.6785 C.3     1  UNL1        0.2526
     25 O          67.3677   94.3032   14.3488 O.3     1  UNL1       -0.4684
     26 C          67.8053   93.3629   15.4324 C.3     1  UNL1        0.2526
     27 C          63.7970   83.6539   10.7553 C.ar    1  UNL1        0.1393
     28 C          62.7089   84.3045   11.5572 C.ar    1  UNL1        0.0366
     29 C          61.7460   85.2429   10.8922 C.ar    1  UNL1       -0.0012
     30 C          61.8711   85.5307    9.4254 C.ar    1  UNL1       -0.0226
     31 C          62.9591   84.8802    8.6236 C.ar    1  UNL1       -0.0012
     32 C          63.9221   83.9417    9.2885 C.ar    1  UNL1        0.0366
     33 O          64.7599   82.7156   11.4203 O.3     1  UNL1       -0.4656
     34 C          64.3870   82.0488   12.7111 C.3     1  UNL1        0.2897
     35 N          64.2666   84.0932   14.3099 N.am    1  UNL1       -0.2807
     36 C          63.6702   82.8245   13.7763 C.2     1  UNL1        0.2707
     37 O          62.3570   82.3316   14.3078 O.2     1  UNL1       -0.2707
     38 H          65.1285   84.4167   13.9611 H       1  UNL1        0.1550
     39 C          64.0221   86.2427   15.7485 C.ar    1  UNL1        0.0891
     40 C          63.3053   87.0184   16.8136 C.ar    1  UNL1        0.0077
     41 C          62.1163   86.4202   17.5053 C.ar    1  UNL1        0.0003
     42 C          61.6440   85.0464   17.1318 C.ar    1  UNL1        0.0013
     43 C          62.3608   84.2707   16.0667 C.ar    1  UNL1        0.0149
     44 C          63.5498   84.8688   15.3750 C.ar    1  UNL1        0.0566
     45 C          65.2111   86.8409   15.0569 C.2     1  UNL1        0.3425
     46 O          66.4544   86.0246   14.8617 O.2     1  UNL1       -0.2448
     47 C          64.2713   89.2560   15.2418 C.3     1  UNL1        0.2560
     48 O          65.1569   88.2553   14.5604 O.3     1  UNL1       -0.4413
@<TRIPOS>BOND
     1    47    48    1
     2    48    45    1
     3    45    46    2
     4    45    39    1
     5    39    40   ar
     6    40    41   ar
     7    41    42   ar
     8    42    43   ar
     9    43    44   ar
    10    44    35    1
    11    35    36   am
    12    36    37    2
    13    36    34    1
    14    34    33    1
    15    33    27    1
    16    27    28   ar
    17    28    29   ar
    18    29    30   ar
    19    30     1    1
    20     1     2    1
    21     2     3    1
    22     3     4    1
    23     4     5    1
    24     5     6    1
    25     6     7    1
    26     7    11    1
    27    11    12    2
    28    11    13   am
    29    13    14    1
    30    14    15    1
    31    15    16    1
    32    16    17   ar
    33    17    18   ar
    34    18    23    1
    35    23    24    1
    36    18    19   ar
    37    19    25    1
    38    25    26    1
    39    19    20   ar
    40    20    21   ar
    41    21    22    1
    42     7     8    1
    43     7     9    1
    44     5    10    1
    45    30    31   ar
    46    31    32   ar
    47    44    39   ar
    48    32    27   ar
    49     9     1    1
    50    10     1    1
    51     8     3    1
    52    22    13    1
    53    21    16   ar
    54    35    38    1
@<TRIPOS>MOLECULE
*****
 48 54 0 0 0
SMALL
GASTEIGER

@<TRIPOS>ATOM
      1 C          63.1131   83.6471   13.5981 C.3     1  UNL1        0.0194
      2 C          62.8665   83.9225   12.1444 C.3     1  UNL1        0.0041
      3 C          62.7893   82.7861   11.1684 C.3     1  UNL1        0.0008
      4 C          62.9587   81.3744   11.6461 C.3     1  UNL1        0.0000
      5 C          63.2054   81.0990   13.0998 C.3     1  UNL1        0.0008
      6 C          62.9373   84.3603   12.7818 C.3     1  UNL1        0.0086
      7 C          62.6971   85.3343   11.6667 C.3     1  UNL1        0.0694
      8 C          62.6199   84.1979   10.6907 C.3     1  UNL1        0.0086
      9 C          62.9437   85.0589   13.1204 C.3     1  UNL1        0.0127
     10 C          63.2825   82.2354   14.0758 C.3     1  UNL1        0.0041
     11 C          62.5277   86.7461   11.1890 C.2     1  UNL1        0.2250
     12 O          63.3005   87.8555   11.8385 O.2     1  UNL1       -0.2749
     13 N          61.5855   87.0485   10.0617 N.am    1  UNL1       -0.2751
     14 C          60.8127   85.9390    9.4121 C.3     1  UNL1        0.0984
     15 C          59.8705   86.2414    8.2848 C.3     1  UNL1        0.0477
     16 C          59.7011   87.6532    7.8071 C.ar    1  UNL1       -0.0196
     17 C          58.7588   87.9555    6.6798 C.ar    1  UNL1        0.0356
     18 C          58.5894   89.3673    6.2021 C.ar    1  UNL1        0.1721
     19 C          59.3622   90.4767    6.8517 C.ar    1  UNL1        0.1721
     20 C          60.3044   90.1744    7.9790 C.ar    1  UNL1        0.0371
     21 C          60.4738   88.7626    8.4567 C.ar    1  UNL1       -0.0030
     22 C          61.4161   88.4602    9.5840 C.3     1  UNL1        0.1199
     23 O          57.6472   89.6697    5.0748 O.3     1  UNL1       -0.4684
     24 C          56.4009   90.4640    5.3315 C.3     1  UNL1        0.2526
     25 O          59.1928   91.8885    6.3740 O.3     1  UNL1       -0.4684
     26 C          59.3645   92.2139    4.9199 C.3     1  UNL1        0.2526
     27 C          63.3447   87.0563   16.5263 C.ar    1  UNL1        0.1393
     28 C          62.3214   85.9754   16.7129 C.ar    1  UNL1        0.0366
     29 C          62.2442   84.8391   15.7368 C.ar    1  UNL1       -0.0012
     30 C          63.1903   84.7835   14.5742 C.ar    1  UNL1       -0.0226
     31 C          64.2136   85.8643   14.3876 C.ar    1  UNL1       -0.0012
     32 C          64.2908   87.0007   15.3637 C.ar    1  UNL1        0.0366
     33 O          63.4219   88.1926   17.5024 O.3     1  UNL1       -0.4656
     34 C          62.9775   89.5652   17.0920 C.3     1  UNL1        0.2897
     35 N          64.4803   90.8993   15.4452 N.am    1  UNL1       -0.2807
     36 C          63.2628   90.0628   15.7060 C.2     1  UNL1        0.2707
     37 O          62.3306   89.7239   14.5808 O.2     1  UNL1       -0.2707
     38 H          65.0922   91.1217   16.1837 H       1  UNL1        0.1550
     39 C          65.9222   92.3208   13.8172 C.ar    1  UNL1        0.0891
     40 C          66.2074   92.8184   12.4312 C.ar    1  UNL1        0.0077
     41 C          65.3361   92.3919   11.2871 C.ar    1  UNL1        0.0003
     42 C          64.1795   91.4680   11.5290 C.ar    1  UNL1        0.0013
     43 C          63.8942   90.9704   12.9151 C.ar    1  UNL1        0.0149
     44 C          64.7655   91.3968   14.0592 C.ar    1  UNL1        0.0566
     45 C          66.7935   92.7472   14.9613 C.2     1  UNL1        0.3425
     46 O          66.2370   92.7868   16.3537 O.2     1  UNL1       -0.2448
     47 C          69.0772   93.6118   15.8484 C.3     1  UNL1        0.2560
     48 O          68.2213   93.1341   14.7130 O.3     1  UNL1       -0.4413
@<TRIPOS>BOND
     1    47    48    1
     2    48    45    1
     3    45    46    2
     4    45    39    1
     5    39    40   ar
     6    40    41   ar
     7    41    42   ar
     8    42    43   ar
     9    43    44   ar
    10    44    35    1
    11    35    36   am
    12    36    37    2
    13    36    34    1
    14    34    33    1
    15    33    27    1
    16    27    28   ar
    17    28    29   ar
    18    29    30   ar
    19    30     1    1
    20     1     2    1
    21     2     3    1
    22     3     4    1
    23     4     5    1
    24     5     6    1
    25     6     7    1
    26     7    11    1
    27    11    12    2
    28    11    13   am
    29    13    14    1
    30    14    15    1
    31    15    16    1
    32    16    17   ar
    33    17    18   ar
    34    18    23    1
    35    23    24    1
    36    18    19   ar
    37    19    25    1
    38    25    26    1
    39    19    20   ar
    40    20    21   ar
    41    21    22    1
    42     7     8    1
    43     7     9    1
    44     5    10    1
    45    30    31   ar
    46    31    32   ar
    47    44    39   ar
    48    32    27   ar
    49     9     1    1
    50    10     1    1
    51     8     3    1
    52    22    13    1
    53    21    16   ar
    54    35    38    1
@<TRIPOS>MOLECULE
*****
 48 54 0 0 0
SMALL
GASTEIGER

@<TRIPOS>ATOM
      1 C          63.0111   83.4881   13.5298 C.3     1  UNL1        0.0194
      2 C          62.8038   83.7655   12.0704 C.3     1  UNL1        0.0041
      3 C          62.7234   82.6288   11.0950 C.3     1  UNL1        0.0008
      4 C          62.8502   81.2147   11.5790 C.3     1  UNL1        0.0000
      5 C          63.0575   80.9373   13.0385 C.3     1  UNL1        0.0008
      6 C          62.8699   84.2030   12.7084 C.3     1  UNL1        0.0086
      7 C          62.6769   85.1795   11.5863 C.3     1  UNL1        0.0694
      8 C          62.5965   84.0428   10.6109 C.3     1  UNL1        0.0086
      9 C          62.8842   84.9021   13.0458 C.3     1  UNL1        0.0127
     10 C          63.1380   82.0740   14.0139 C.3     1  UNL1        0.0041
     11 C          62.5501   86.5936   11.1023 C.2     1  UNL1        0.2250
     12 O          63.3857   87.6755   11.7197 O.2     1  UNL1       -0.2749
     13 N          61.5875   86.9258   10.0009 N.am    1  UNL1       -0.2751
     14 C          60.7518   85.8439    9.3834 C.3     1  UNL1        0.0984
     15 C          59.7893   86.1761    8.2820 C.3     1  UNL1        0.0477
     16 C          59.6624   87.5902    7.7980 C.ar    1  UNL1       -0.0196
     17 C          58.6999   87.9223    6.6965 C.ar    1  UNL1        0.0356
     18 C          58.5730   89.3364    6.2125 C.ar    1  UNL1        0.1721
     19 C          59.4087   90.4183    6.8299 C.ar    1  UNL1        0.1721
     20 C          60.3712   90.0861    7.9313 C.ar    1  UNL1        0.0371
     21 C          60.4981   88.6720    8.4154 C.ar    1  UNL1       -0.0030
     22 C          61.4607   88.3399    9.5168 C.3     1  UNL1        0.1199
     23 O          57.6105   89.6686    5.1110 O.3     1  UNL1       -0.4684
     24 C          56.3663   90.4503    5.4127 C.3     1  UNL1        0.2526
     25 O          59.2818   91.8324    6.3458 O.3     1  UNL1       -0.4684
     26 C          59.3645   92.1331    4.8787 C.3     1  UNL1        0.2526
     27 C          63.2525   86.8981   16.4562 C.ar    1  UNL1        0.1393
     28 C          64.2620   86.7839   15.3526 C.ar    1  UNL1        0.0366
     29 C          64.1816   85.6472   14.3772 C.ar    1  UNL1       -0.0012
     30 C          63.0916   84.6248   14.5053 C.ar    1  UNL1       -0.0226
     31 C          62.0820   84.7389   15.6088 C.ar    1  UNL1       -0.0012
     32 C          62.1625   85.8756   16.5843 C.ar    1  UNL1        0.0366
     33 O          63.3330   88.0348   17.4316 O.3     1  UNL1       -0.4656
     34 C          62.7557   89.3722   17.0740 C.3     1  UNL1        0.2897
     35 N          64.1198   89.9278   14.9337 N.am    1  UNL1       -0.2807
     36 C          63.5603   90.3435   16.2619 C.2     1  UNL1        0.2707
     37 O          63.8053   91.7304   16.7780 O.2     1  UNL1       -0.2707
     38 H          63.9590   89.0175   14.5949 H       1  UNL1        0.1550
     39 C          64.4182   91.3610   12.7873 C.ar    1  UNL1        0.0891
     40 C          65.2227   92.3322   11.9753 C.ar    1  UNL1        0.0077
     41 C          66.5333   92.8415   12.4975 C.ar    1  UNL1        0.0003
     42 C          67.0395   92.3796   13.8318 C.ar    1  UNL1        0.0013
     43 C          66.2350   91.4083   14.6440 C.ar    1  UNL1        0.0149
     44 C          64.9243   90.8990   14.1217 C.ar    1  UNL1        0.0566
     45 C          63.1075   90.8516   12.2650 C.2     1  UNL1        0.3425
     46 O          62.7066   91.1292   10.8464 O.2     1  UNL1       -0.2448
     47 C          60.8108   89.7201   12.7059 C.3     1  UNL1        0.2560
     48 O          62.1978   90.0648   13.1612 O.3     1  UNL1       -0.4413
@<TRIPOS>BOND
     1    47    48    1
     2    48    45    1
     3    45    46    2
     4    45    39    1
     5    39    40   ar
     6    40    41   ar
     7    41    42   ar
     8    42    43   ar
     9    43    44   ar
    10    44    35    1
    11    35    36   am
    12    36    37    2
    13    36    34    1
    14    34    33    1
    15    33    27    1
    16    27    28   ar
    17    28    29   ar
    18    29    30   ar
    19    30     1    1
    20     1     2    1
    21     2     3    1
    22     3     4    1
    23     4     5    1
    24     5     6    1
    25     6     7    1
    26     7    11    1
    27    11    12    2
    28    11    13   am
    29    13    14    1
    30    14    15    1
    31    15    16    1
    32    16    17   ar
    33    17    18   ar
    34    18    23    1
    35    23    24    1
    36    18    19   ar
    37    19    25    1
    38    25    26    1
    39    19    20   ar
    40    20    21   ar
    41    21    22    1
    42     7     8    1
    43     7     9    1
    44     5    10    1
    45    30    31   ar
    46    31    32   ar
    47    44    39   ar
    48    32    27   ar
    49     9     1    1
    50    10     1    1
    51     8     3    1
    52    22    13    1
    53    21    16   ar
    54    35    38    1
