@<TRIPOS>MOLECULE
*****
 35 38 0 0 0
SMALL
GASTEIGER

@<TRIPOS>ATOM
      1 N          63.3272   88.6791   12.5113 N.ar    1  UNL1       -0.2470
      2 C          62.4825   88.4195   11.2993 C.ar    1  UNL1        0.2657
      3 O          62.0081   89.5658   10.4562 O.2     1  UNL1       -0.2668
      4 C          62.1123   87.0135   10.9303 C.ar    1  UNL1        0.0744
      5 C          62.5868   85.8672   11.7734 C.ar    1  UNL1        0.0848
      6 N          63.4314   86.1268   12.9855 N.ar    1  UNL1       -0.2754
      7 C          63.8016   87.5327   13.3544 C.ar    1  UNL1        0.3341
      8 O          64.6463   87.7924   14.5666 O.2     1  UNL1       -0.2462
      9 C          61.2677   86.7538    9.7182 C.ar    1  UNL1        0.0166
     10 C          59.8790   87.3152    9.6375 C.ar    1  UNL1        0.0010
     11 C          59.0344   87.0556    8.4254 C.ar    1  UNL1        0.0001
     12 C          59.5783   86.2345    7.2940 C.ar    1  UNL1        0.0009
     13 C          60.9670   85.6732    7.3747 C.ar    1  UNL1        0.0114
     14 C          61.8117   85.9328    8.5868 C.ar    1  UNL1        0.0578
     15 CL         63.2003   85.3715    8.6675 Cl      1  UNL1       -0.0822
     16 C          63.6974   90.0851   12.8804 C.3     1  UNL1        0.1334
     17 N          62.8511   90.0575   15.3366 N.3     1  UNL1       -0.3172
     18 C          63.8799   90.4590   14.3215 C.3     1  UNL1        0.0968
     19 H          62.1020   89.5412   14.8755 H       1  UNL1        0.1192
     20 H          62.4664   90.8921   15.7791 H       1  UNL1        0.1192
     21 C          65.0913   91.2343   14.7476 C.ar    1  UNL1       -0.0063
     22 C          65.0949   91.9576   16.0616 C.ar    1  UNL1       -0.0029
     23 C          66.3062   92.7329   16.4876 C.ar    1  UNL1       -0.0003
     24 C          67.5140   92.7848   15.5997 C.ar    1  UNL1       -0.0000
     25 C          67.5105   92.0615   14.2856 C.ar    1  UNL1       -0.0003
     26 C          66.2991   91.2862   13.8596 C.ar    1  UNL1       -0.0029
     27 C          63.9058   84.9804   13.8286 C.3     1  UNL1        0.1417
     28 C          63.3544   83.6041   13.6018 C.ar    1  UNL1        0.0555
     29 C          63.7992   82.8043   12.4132 C.ar    1  UNL1        0.1401
     30 F          64.7955   83.3810   11.4515 F       1  UNL1       -0.2044
     31 C          63.2478   81.4279   12.1865 C.ar    1  UNL1        0.0295
     32 C          62.2516   80.8512   13.1482 C.ar    1  UNL1        0.0046
     33 C          61.8067   81.6509   14.3367 C.ar    1  UNL1        0.0295
     34 C          62.3581   83.0274   14.5635 C.ar    1  UNL1        0.1401
     35 F          61.9133   83.8270   15.7520 F       1  UNL1       -0.2044
@<TRIPOS>BOND
     1    18    17    1
     2    18    16    1
     3    16     1    1
     4     1     2   ar
     5     2     3    2
     6     2     4   ar
     7     4     9    1
     8     9    10   ar
     9    10    11   ar
    10    11    12   ar
    11    12    13   ar
    12    13    14   ar
    13    14    15    1
    14     4     5   ar
    15     5     6   ar
    16     6    27    1
    17    27    28    1
    18    28    29   ar
    19    29    30    1
    20    29    31   ar
    21    31    32   ar
    22    32    33   ar
    23    33    34   ar
    24    34    35    1
    25     6     7   ar
    26     7     8    2
    27    18    21    1
    28    21    22   ar
    29    22    23   ar
    30    23    24   ar
    31    24    25   ar
    32    25    26   ar
    33     7     1   ar
    34    26    21   ar
    35    14     9   ar
    36    34    28   ar
    37    17    19    1
    38    17    20    1
@<TRIPOS>MOLECULE
*****
 35 38 0 0 0
SMALL
GASTEIGER

@<TRIPOS>ATOM
      1 N          63.3225   88.6779   12.5111 N.ar    1  UNL1       -0.2470
      2 C          62.4764   88.4184   11.3001 C.ar    1  UNL1        0.2657
      3 O          61.9985   89.5651   10.4594 O.2     1  UNL1       -0.2668
      4 C          62.1082   87.0123   10.9297 C.ar    1  UNL1        0.0744
      5 C          62.5861   85.8657   11.7704 C.ar    1  UNL1        0.0848
      6 N          63.4322   86.1251   12.9815 N.ar    1  UNL1       -0.2754
      7 C          63.8004   87.5312   13.3518 C.ar    1  UNL1        0.3341
      8 O          64.6466   87.7907   14.5629 O.2     1  UNL1       -0.2462
      9 C          61.2620   86.7528    9.7186 C.ar    1  UNL1        0.0166
     10 C          59.8725   87.3125    9.6406 C.ar    1  UNL1        0.0010
     11 C          59.0263   87.0530    8.4296 C.ar    1  UNL1        0.0001
     12 C          59.5696   86.2339    7.2964 C.ar    1  UNL1        0.0009
     13 C          60.9591   85.6742    7.3744 C.ar    1  UNL1        0.0114
     14 C          61.8053   85.9337    8.5856 C.ar    1  UNL1        0.0578
     15 CL         63.1948   85.3741    8.6635 Cl      1  UNL1       -0.0822
     16 C          63.6908   90.0840   12.8816 C.3     1  UNL1        0.1334
     17 N          62.8464   90.0532   15.3384 N.3     1  UNL1       -0.3172
     18 C          63.8742   90.4564   14.3229 C.3     1  UNL1        0.0968
     19 H          62.0972   89.5370   14.8773 H       1  UNL1        0.1192
     20 H          62.4616   90.8871   15.7822 H       1  UNL1        0.1192
     21 C          65.0855   91.2319   14.7490 C.ar    1  UNL1       -0.0063
     22 C          65.0878   91.9580   16.0615 C.ar    1  UNL1       -0.0029
     23 C          66.2990   92.7334   16.4875 C.ar    1  UNL1       -0.0003
     24 C          67.5080   92.7828   15.6009 C.ar    1  UNL1       -0.0000
     25 C          67.5057   92.0568   14.2884 C.ar    1  UNL1       -0.0003
     26 C          66.2945   91.2813   13.8624 C.ar    1  UNL1       -0.0029
     27 C          63.9101   84.9784   13.8221 C.3     1  UNL1        0.1417
     28 C          63.3582   83.6020   13.5967 C.ar    1  UNL1        0.0555
     29 C          62.3554   83.0299   14.5544 C.ar    1  UNL1        0.1401
     30 F          61.9045   83.8342   15.7375 F       1  UNL1       -0.2044
     31 C          61.8035   81.6535   14.3290 C.ar    1  UNL1        0.0295
     32 C          62.2543   80.8492   13.1459 C.ar    1  UNL1        0.0046
     33 C          63.2571   81.4212   12.1882 C.ar    1  UNL1        0.0295
     34 C          63.8090   82.7977   12.4136 C.ar    1  UNL1        0.1401
     35 F          64.8118   83.3697   11.4559 F       1  UNL1       -0.2044
@<TRIPOS>BOND
     1    18    17    1
     2    18    16    1
     3    16     1    1
     4     1     2   ar
     5     2     3    2
     6     2     4   ar
     7     4     9    1
     8     9    10   ar
     9    10    11   ar
    10    11    12   ar
    11    12    13   ar
    12    13    14   ar
    13    14    15    1
    14     4     5   ar
    15     5     6   ar
    16     6    27    1
    17    27    28    1
    18    28    29   ar
    19    29    30    1
    20    29    31   ar
    21    31    32   ar
    22    32    33   ar
    23    33    34   ar
    24    34    35    1
    25     6     7   ar
    26     7     8    2
    27    18    21    1
    28    21    22   ar
    29    22    23   ar
    30    23    24   ar
    31    24    25   ar
    32    25    26   ar
    33     7     1   ar
    34    26    21   ar
    35    14     9   ar
    36    34    28   ar
    37    17    19    1
    38    17    20    1
@<TRIPOS>MOLECULE
*****
 35 38 0 0 0
SMALL
GASTEIGER

@<TRIPOS>ATOM
      1 N          63.5489   86.4546   13.2100 N.ar    1  UNL1       -0.2470
      2 C          63.0077   85.9614   11.9009 C.ar    1  UNL1        0.2657
      3 O          62.9887   84.4914   11.6032 O.2     1  UNL1       -0.2668
      4 C          62.4855   86.9383   10.8895 C.ar    1  UNL1        0.0744
      5 C          62.5045   88.4083   11.1872 C.ar    1  UNL1        0.0848
      6 N          63.0457   88.9015   12.4963 N.ar    1  UNL1       -0.2754
      7 C          63.5679   87.9247   13.5077 C.ar    1  UNL1        0.3341
      8 O          64.1092   88.4178   14.8169 O.2     1  UNL1       -0.2462
      9 C          61.9442   86.4451    9.5803 C.ar    1  UNL1        0.0166
     10 C          62.8132   85.6304    8.6687 C.ar    1  UNL1        0.0010
     11 C          62.2720   85.1373    7.3595 C.ar    1  UNL1        0.0001
     12 C          60.8618   85.4588    6.9620 C.ar    1  UNL1        0.0009
     13 C          59.9928   86.2735    7.8737 C.ar    1  UNL1        0.0114
     14 C          60.5341   86.7667    9.1829 C.ar    1  UNL1        0.0578
     15 CL         59.6651   87.5814   10.0945 Cl      1  UNL1       -0.0822
     16 C          64.0712   85.4778   14.2215 C.3     1  UNL1        0.1334
     17 N          62.3807   85.0731   16.1525 N.3     1  UNL1       -0.3172
     18 C          63.1223   84.5719   14.9488 C.3     1  UNL1        0.0968
     19 H          62.6406   86.0428   16.3325 H       1  UNL1        0.1192
     20 H          62.6205   84.5009   16.9621 H       1  UNL1        0.1192
     21 C          62.9149   83.1647   14.4723 C.ar    1  UNL1       -0.0063
     22 C          61.5638   82.5241   14.5911 C.ar    1  UNL1       -0.0029
     23 C          61.3565   81.1170   14.1147 C.ar    1  UNL1       -0.0003
     24 C          62.5003   80.3505   13.5195 C.ar    1  UNL1       -0.0000
     25 C          63.8514   80.9910   13.4008 C.ar    1  UNL1       -0.0003
     26 C          64.0587   82.3982   13.8772 C.ar    1  UNL1       -0.0029
     27 C          63.0647   90.3716   12.7940 C.3     1  UNL1        0.1417
     28 C          64.2350   91.2078   12.3687 C.ar    1  UNL1        0.0555
     29 C          65.3259   91.5249   13.3483 C.ar    1  UNL1        0.1401
     30 F          65.2463   91.0056   14.7533 F       1  UNL1       -0.2044
     31 C          66.4962   92.3612   12.9230 C.ar    1  UNL1        0.0295
     32 C          66.5757   92.8805   11.5180 C.ar    1  UNL1        0.0046
     33 C          65.4850   92.5635   10.5383 C.ar    1  UNL1        0.0295
     34 C          64.3146   91.7271   10.9637 C.ar    1  UNL1        0.1401
     35 F          63.2239   91.4101    9.9840 F       1  UNL1       -0.2044
@<TRIPOS>BOND
     1    18    17    1
     2    18    16    1
     3    16     1    1
     4     1     2   ar
     5     2     3    2
     6     2     4   ar
     7     4     9    1
     8     9    10   ar
     9    10    11   ar
    10    11    12   ar
    11    12    13   ar
    12    13    14   ar
    13    14    15    1
    14     4     5   ar
    15     5     6   ar
    16     6    27    1
    17    27    28    1
    18    28    29   ar
    19    29    30    1
    20    29    31   ar
    21    31    32   ar
    22    32    33   ar
    23    33    34   ar
    24    34    35    1
    25     6     7   ar
    26     7     8    2
    27    18    21    1
    28    21    22   ar
    29    22    23   ar
    30    23    24   ar
    31    24    25   ar
    32    25    26   ar
    33     7     1   ar
    34    26    21   ar
    35    14     9   ar
    36    34    28   ar
    37    17    19    1
    38    17    20    1
@<TRIPOS>MOLECULE
*****
 35 38 0 0 0
SMALL
GASTEIGER

@<TRIPOS>ATOM
      1 N          63.4845   86.6151   13.0296 N.ar    1  UNL1       -0.2470
      2 C          62.6738   86.2518   11.8210 C.ar    1  UNL1        0.2657
      3 O          62.4793   84.8104   11.4540 O.2     1  UNL1       -0.2668
      4 C          62.0577   87.3298   10.9794 C.ar    1  UNL1        0.0744
      5 C          62.2523   88.7711   11.3465 C.ar    1  UNL1        0.0848
      6 N          63.0630   89.1344   12.5551 N.ar    1  UNL1       -0.2754
      7 C          63.6791   88.0564   13.3966 C.ar    1  UNL1        0.3341
      8 O          64.4898   88.4197   14.6053 O.2     1  UNL1       -0.2462
      9 C          61.2470   86.9665    9.7707 C.ar    1  UNL1        0.0166
     10 C          59.8127   87.3944    9.6734 C.ar    1  UNL1        0.0010
     11 C          59.0020   87.0312    8.4648 C.ar    1  UNL1        0.0001
     12 C          59.6256   86.2400    7.3535 C.ar    1  UNL1        0.0009
     13 C          61.0600   85.8120    7.4508 C.ar    1  UNL1        0.0114
     14 C          61.8707   86.1753    8.6594 C.ar    1  UNL1        0.0578
     15 CL         63.3050   85.7474    8.7567 Cl      1  UNL1       -0.0822
     16 C          64.1006   85.5371   13.8712 C.3     1  UNL1        0.1334
     17 N          62.5906   85.1358   15.9470 N.3     1  UNL1       -0.3172
     18 C          63.2268   84.6303   14.6862 C.3     1  UNL1        0.0968
     19 H          62.8579   86.1088   16.0962 H       1  UNL1        0.1192
     20 H          62.9055   84.5719   16.7365 H       1  UNL1        0.1192
     21 C          62.9891   83.2179   14.2403 C.ar    1  UNL1       -0.0063
     22 C          64.0360   82.4964   13.4444 C.ar    1  UNL1       -0.0029
     23 C          63.7983   81.0841   12.9986 C.ar    1  UNL1       -0.0003
     24 C          62.5137   80.3933   13.3486 C.ar    1  UNL1       -0.0000
     25 C          61.4668   81.1148   14.1444 C.ar    1  UNL1       -0.0003
     26 C          61.7045   82.5271   14.5903 C.ar    1  UNL1       -0.0029
     27 C          63.2576   90.5758   12.9221 C.3     1  UNL1        0.1417
     28 C          64.4477   91.3275   12.4041 C.ar    1  UNL1        0.0555
     29 C          64.4612   91.8285   10.9903 C.ar    1  UNL1        0.1401
     30 F          63.2845   91.5777   10.0945 F       1  UNL1       -0.2044
     31 C          65.6513   92.5803   10.4723 C.ar    1  UNL1        0.0295
     32 C          66.8280   92.8311   11.3681 C.ar    1  UNL1        0.0046
     33 C          66.8146   92.3302   12.7819 C.ar    1  UNL1        0.0295
     34 C          65.6244   91.5783   13.2999 C.ar    1  UNL1        0.1401
     35 F          65.6110   91.0774   14.7137 F       1  UNL1       -0.2044
@<TRIPOS>BOND
     1    18    17    1
     2    18    16    1
     3    16     1    1
     4     1     2   ar
     5     2     3    2
     6     2     4   ar
     7     4     9    1
     8     9    10   ar
     9    10    11   ar
    10    11    12   ar
    11    12    13   ar
    12    13    14   ar
    13    14    15    1
    14     4     5   ar
    15     5     6   ar
    16     6    27    1
    17    27    28    1
    18    28    29   ar
    19    29    30    1
    20    29    31   ar
    21    31    32   ar
    22    32    33   ar
    23    33    34   ar
    24    34    35    1
    25     6     7   ar
    26     7     8    2
    27    18    21    1
    28    21    22   ar
    29    22    23   ar
    30    23    24   ar
    31    24    25   ar
    32    25    26   ar
    33     7     1   ar
    34    26    21   ar
    35    14     9   ar
    36    34    28   ar
    37    17    19    1
    38    17    20    1
@<TRIPOS>MOLECULE
*****
 35 38 0 0 0
SMALL
GASTEIGER

@<TRIPOS>ATOM
      1 N          63.7116   87.4808   13.2941 N.ar    1  UNL1       -0.2470
      2 C          63.6587   86.0238   13.6465 C.ar    1  UNL1        0.2657
      3 O          64.3028   85.5337   14.9094 O.2     1  UNL1       -0.2668
      4 C          62.9617   85.0568   12.7359 C.ar    1  UNL1        0.0744
      5 C          62.3177   85.5469   11.4729 C.ar    1  UNL1        0.0848
      6 N          62.3706   87.0040   11.1206 N.ar    1  UNL1       -0.2754
      7 C          63.0676   87.9709   12.0312 C.ar    1  UNL1        0.3341
      8 O          63.1205   89.4280   11.6788 O.2     1  UNL1       -0.2462
      9 C          62.9088   83.5997   13.0882 C.ar    1  UNL1        0.0166
     10 C          62.0314   83.1310   14.2110 C.ar    1  UNL1        0.0010
     11 C          61.9785   81.6740   14.5633 C.ar    1  UNL1        0.0001
     12 C          62.8029   80.6856   13.7929 C.ar    1  UNL1        0.0009
     13 C          63.6803   81.1543   12.6702 C.ar    1  UNL1        0.0114
     14 C          63.7332   82.6114   12.3179 C.ar    1  UNL1        0.0578
     15 CL         64.6106   83.0801   11.1951 Cl      1  UNL1       -0.0822
     16 C          64.4086   88.4479   14.2047 C.3     1  UNL1        0.1334
     17 N          62.3957   90.0005   14.7408 N.3     1  UNL1       -0.3172
     18 C          63.8477   89.8240   14.4081 C.3     1  UNL1        0.0968
     19 H          61.9444   89.0870   14.7888 H       1  UNL1        0.1192
     20 H          61.9473   90.5637   14.0181 H       1  UNL1        0.1192
     21 C          64.7387   91.0239   14.2787 C.ar    1  UNL1       -0.0063
     22 C          65.3884   91.6103   15.4969 C.ar    1  UNL1       -0.0029
     23 C          66.2794   92.8100   15.3675 C.ar    1  UNL1       -0.0003
     24 C          66.5206   93.4233   14.0200 C.ar    1  UNL1       -0.0000
     25 C          65.8708   92.8369   12.8019 C.ar    1  UNL1       -0.0003
     26 C          64.9799   91.6372   12.9313 C.ar    1  UNL1       -0.0029
     27 C          61.7265   87.4940    9.8576 C.3     1  UNL1        0.1417
     28 C          61.4875   86.5454    8.7206 C.ar    1  UNL1        0.0555
     29 C          62.6312   85.7681    8.1393 C.ar    1  UNL1        0.1401
     30 F          64.0139   85.9395    8.6950 F       1  UNL1       -0.2044
     31 C          62.3922   84.8194    7.0022 C.ar    1  UNL1        0.0295
     32 C          61.0095   84.6480    6.4465 C.ar    1  UNL1        0.0046
     33 C          59.8658   85.4252    7.0278 C.ar    1  UNL1        0.0295
     34 C          60.1048   86.3739    8.1649 C.ar    1  UNL1        0.1401
     35 F          58.9612   87.1511    8.7462 F       1  UNL1       -0.2044
@<TRIPOS>BOND
     1    18    17    1
     2    18    16    1
     3    16     1    1
     4     1     2   ar
     5     2     3    2
     6     2     4   ar
     7     4     9    1
     8     9    10   ar
     9    10    11   ar
    10    11    12   ar
    11    12    13   ar
    12    13    14   ar
    13    14    15    1
    14     4     5   ar
    15     5     6   ar
    16     6    27    1
    17    27    28    1
    18    28    29   ar
    19    29    30    1
    20    29    31   ar
    21    31    32   ar
    22    32    33   ar
    23    33    34   ar
    24    34    35    1
    25     6     7   ar
    26     7     8    2
    27    18    21    1
    28    21    22   ar
    29    22    23   ar
    30    23    24   ar
    31    24    25   ar
    32    25    26   ar
    33     7     1   ar
    34    26    21   ar
    35    14     9   ar
    36    34    28   ar
    37    17    19    1
    38    17    20    1
@<TRIPOS>MOLECULE
*****
 35 38 0 0 0
SMALL
GASTEIGER

@<TRIPOS>ATOM
      1 N          62.1006   87.2965   12.1413 N.ar    1  UNL1       -0.2470
      2 C          62.6023   88.5407   12.8122 C.ar    1  UNL1        0.2657
      3 O          61.9788   89.8676   12.4946 O.2     1  UNL1       -0.2668
      4 C          63.7275   88.4582   13.8006 C.ar    1  UNL1        0.0744
      5 C          64.3510   87.1314   14.1182 C.ar    1  UNL1        0.0848
      6 N          63.8493   85.8871   13.4473 N.ar    1  UNL1       -0.2754
      7 C          62.7241   85.9697   12.4588 C.ar    1  UNL1        0.3341
      8 O          62.2224   84.7255   11.7878 O.2     1  UNL1       -0.2462
      9 C          64.2292   89.7024   14.4716 C.ar    1  UNL1        0.0166
     10 C          65.2505   90.5630   13.7887 C.ar    1  UNL1        0.0010
     11 C          65.7522   91.8072   14.4596 C.ar    1  UNL1        0.0001
     12 C          65.2327   92.1909   15.8135 C.ar    1  UNL1        0.0009
     13 C          64.2115   91.3303   16.4964 C.ar    1  UNL1        0.0114
     14 C          63.7097   90.0860   15.8254 C.ar    1  UNL1        0.0578
     15 CL         62.6885   89.2254   16.5084 Cl      1  UNL1       -0.0822
     16 C          60.9754   87.3791   11.1527 C.3     1  UNL1        0.1334
     17 N          61.3509   89.1971    9.3352 N.3     1  UNL1       -0.3172
     18 C          61.2553   87.7524    9.7272 C.3     1  UNL1        0.0968
     19 H          61.2008   89.7829   10.1566 H       1  UNL1        0.1192
     20 H          60.6408   89.4068    8.6336 H       1  UNL1        0.1192
     21 C          61.4395   86.6810    8.6936 C.ar    1  UNL1       -0.0063
     22 C          62.7656   85.9941    8.5536 C.ar    1  UNL1       -0.0029
     23 C          62.9498   84.9228    7.5200 C.ar    1  UNL1       -0.0003
     24 C          61.8079   84.5384    6.6265 C.ar    1  UNL1       -0.0000
     25 C          60.4819   85.2254    6.7665 C.ar    1  UNL1       -0.0003
     26 C          60.2977   86.2967    7.8000 C.ar    1  UNL1       -0.0029
     27 C          64.4728   84.5603   13.7648 C.3     1  UNL1        0.1417
     28 C          63.6684   83.3017   13.6279 C.ar    1  UNL1        0.0555
     29 C          62.6229   82.9649   14.6495 C.ar    1  UNL1        0.1401
     30 F          62.3818   83.8869   15.8079 F       1  UNL1       -0.2044
     31 C          61.8185   81.7063   14.5126 C.ar    1  UNL1        0.0295
     32 C          62.0597   80.7843   13.3543 C.ar    1  UNL1        0.0046
     33 C          63.1051   81.1210   12.3327 C.ar    1  UNL1        0.0295
     34 C          63.9096   82.3797   12.4696 C.ar    1  UNL1        0.1401
     35 F          64.9550   82.7164   11.4480 F       1  UNL1       -0.2044
@<TRIPOS>BOND
     1    18    17    1
     2    18    16    1
     3    16     1    1
     4     1     2   ar
     5     2     3    2
     6     2     4   ar
     7     4     9    1
     8     9    10   ar
     9    10    11   ar
    10    11    12   ar
    11    12    13   ar
    12    13    14   ar
    13    14    15    1
    14     4     5   ar
    15     5     6   ar
    16     6    27    1
    17    27    28    1
    18    28    29   ar
    19    29    30    1
    20    29    31   ar
    21    31    32   ar
    22    32    33   ar
    23    33    34   ar
    24    34    35    1
    25     6     7   ar
    26     7     8    2
    27    18    21    1
    28    21    22   ar
    29    22    23   ar
    30    23    24   ar
    31    24    25   ar
    32    25    26   ar
    33     7     1   ar
    34    26    21   ar
    35    14     9   ar
    36    34    28   ar
    37    17    19    1
    38    17    20    1
@<TRIPOS>MOLECULE
*****
 35 38 0 0 0
SMALL
GASTEIGER

@<TRIPOS>ATOM
      1 N          63.3134   86.5572   13.1428 N.ar    1  UNL1       -0.2470
      2 C          62.4238   86.2596   11.9723 C.ar    1  UNL1        0.2657
      3 O          61.8600   84.8816   11.7899 O.2     1  UNL1       -0.2668
      4 C          62.0979   87.3401   10.9842 C.ar    1  UNL1        0.0744
      5 C          62.6617   88.7181   11.1666 C.ar    1  UNL1        0.0848
      6 N          63.5513   89.0157   12.3371 N.ar    1  UNL1       -0.2754
      7 C          63.8771   87.9352   13.3252 C.ar    1  UNL1        0.3341
      8 O          64.7668   88.2327   14.4957 O.2     1  UNL1       -0.2462
      9 C          61.2083   87.0426    9.8137 C.ar    1  UNL1        0.0166
     10 C          59.8344   87.6407    9.7448 C.ar    1  UNL1        0.0010
     11 C          58.9447   87.3432    8.5743 C.ar    1  UNL1        0.0001
     12 C          59.4290   86.4476    7.4727 C.ar    1  UNL1        0.0009
     13 C          60.8028   85.8496    7.5416 C.ar    1  UNL1        0.0114
     14 C          61.6925   86.1471    8.7121 C.ar    1  UNL1        0.0578
     15 CL         63.0664   85.5490    8.7811 Cl      1  UNL1       -0.0822
     16 C          63.6393   85.4767   14.1309 C.3     1  UNL1        0.1334
     17 N          65.9888   84.3800   14.2956 N.3     1  UNL1       -0.3172
     18 C          64.5894   84.3785   13.7553 C.3     1  UNL1        0.0968
     19 H          66.1205   85.1938   14.8961 H       1  UNL1        0.1192
     20 H          66.6520   84.4176   13.5216 H       1  UNL1        0.1192
     21 C          64.1403   83.2788   12.8393 C.ar    1  UNL1       -0.0063
     22 C          63.2933   82.1601   13.3694 C.ar    1  UNL1       -0.0029
     23 C          62.8442   81.0605   12.4534 C.ar    1  UNL1       -0.0003
     24 C          63.2422   81.0795   11.0073 C.ar    1  UNL1       -0.0000
     25 C          64.0893   82.1981   10.4772 C.ar    1  UNL1       -0.0003
     26 C          64.5383   83.2978   11.3932 C.ar    1  UNL1       -0.0029
     27 C          64.1150   90.3937   12.5195 C.3     1  UNL1        0.1417
     28 C          64.3875   90.9160   13.8989 C.ar    1  UNL1        0.0555
     29 C          65.6567   91.6644   14.1804 C.ar    1  UNL1        0.1401
     30 F          66.6534   91.8903   13.0824 F       1  UNL1       -0.2044
     31 C          65.9292   92.1867   15.5598 C.ar    1  UNL1        0.0295
     32 C          64.9325   91.9608   16.6578 C.ar    1  UNL1        0.0046
     33 C          63.6633   91.2125   16.3764 C.ar    1  UNL1        0.0295
     34 C          63.3908   90.6901   14.9969 C.ar    1  UNL1        0.1401
     35 F          62.1216   89.9418   14.7154 F       1  UNL1       -0.2044
@<TRIPOS>BOND
     1    18    17    1
     2    18    16    1
     3    16     1    1
     4     1     2   ar
     5     2     3    2
     6     2     4   ar
     7     4     9    1
     8     9    10   ar
     9    10    11   ar
    10    11    12   ar
    11    12    13   ar
    12    13    14   ar
    13    14    15    1
    14     4     5   ar
    15     5     6   ar
    16     6    27    1
    17    27    28    1
    18    28    29   ar
    19    29    30    1
    20    29    31   ar
    21    31    32   ar
    22    32    33   ar
    23    33    34   ar
    24    34    35    1
    25     6     7   ar
    26     7     8    2
    27    18    21    1
    28    21    22   ar
    29    22    23   ar
    30    23    24   ar
    31    24    25   ar
    32    25    26   ar
    33     7     1   ar
    34    26    21   ar
    35    14     9   ar
    36    34    28   ar
    37    17    19    1
    38    17    20    1
@<TRIPOS>MOLECULE
*****
 35 38 0 0 0
SMALL
GASTEIGER

@<TRIPOS>ATOM
      1 N          63.1898   88.5276   12.1786 N.ar    1  UNL1       -0.2470
      2 C          63.4038   87.2433   12.9234 C.ar    1  UNL1        0.2657
      3 O          64.2241   87.2323   14.1792 O.2     1  UNL1       -0.2668
      4 C          62.7975   85.9700   12.4124 C.ar    1  UNL1        0.0744
      5 C          61.9773   85.9810   11.1566 C.ar    1  UNL1        0.0848
      6 N          61.7632   87.2652   10.4118 N.ar    1  UNL1       -0.2754
      7 C          62.3695   88.5385   10.9228 C.ar    1  UNL1        0.3341
      8 O          62.1555   89.8229   10.1780 O.2     1  UNL1       -0.2462
      9 C          63.0115   84.6856   13.1573 C.ar    1  UNL1        0.0166
     10 C          62.4950   84.5357   14.5575 C.ar    1  UNL1        0.0010
     11 C          62.7090   83.2514   15.3023 C.ar    1  UNL1        0.0001
     12 C          63.4395   82.1170   14.6469 C.ar    1  UNL1        0.0009
     13 C          63.9561   82.2670   13.2467 C.ar    1  UNL1        0.0114
     14 C          63.7420   83.5513   12.5018 C.ar    1  UNL1        0.0578
     15 CL         64.2586   83.7013   11.1016 Cl      1  UNL1       -0.0822
     16 C          63.7960   89.8009   12.6896 C.3     1  UNL1        0.1334
     17 N          62.3197   89.8220   14.8273 N.3     1  UNL1       -0.3172
     18 C          63.5796   90.2156   14.1147 C.3     1  UNL1        0.0968
     19 H          61.7280   89.2800   14.1975 H       1  UNL1        0.1192
     20 H          61.8211   90.6606   15.1247 H       1  UNL1        0.1192
     21 C          64.6230   91.0240   14.8274 C.ar    1  UNL1       -0.0063
     22 C          64.2943   91.6921   16.1295 C.ar    1  UNL1       -0.0029
     23 C          65.3377   92.5004   16.8421 C.ar    1  UNL1       -0.0003
     24 C          66.7098   92.6407   16.2526 C.ar    1  UNL1       -0.0000
     25 C          67.0385   91.9727   14.9504 C.ar    1  UNL1       -0.0003
     26 C          65.9951   91.1643   14.2378 C.ar    1  UNL1       -0.0029
     27 C          60.9430   87.2762    9.1560 C.3     1  UNL1        0.1417
     28 C          61.1667   86.2298    8.1049 C.ar    1  UNL1        0.0555
     29 C          60.0095   85.7139    7.3019 C.ar    1  UNL1        0.1401
     30 F          58.6286   86.2445    7.5501 F       1  UNL1       -0.2044
     31 C          60.2332   84.6675    6.2508 C.ar    1  UNL1        0.0295
     32 C          61.6141   84.1369    6.0026 C.ar    1  UNL1        0.0046
     33 C          62.7713   84.6527    6.8055 C.ar    1  UNL1        0.0295
     34 C          62.5476   85.6992    7.8567 C.ar    1  UNL1        0.1401
     35 F          63.7048   86.2150    8.6597 F       1  UNL1       -0.2044
@<TRIPOS>BOND
     1    18    17    1
     2    18    16    1
     3    16     1    1
     4     1     2   ar
     5     2     3    2
     6     2     4   ar
     7     4     9    1
     8     9    10   ar
     9    10    11   ar
    10    11    12   ar
    11    12    13   ar
    12    13    14   ar
    13    14    15    1
    14     4     5   ar
    15     5     6   ar
    16     6    27    1
    17    27    28    1
    18    28    29   ar
    19    29    30    1
    20    29    31   ar
    21    31    32   ar
    22    32    33   ar
    23    33    34   ar
    24    34    35    1
    25     6     7   ar
    26     7     8    2
    27    18    21    1
    28    21    22   ar
    29    22    23   ar
    30    23    24   ar
    31    24    25   ar
    32    25    26   ar
    33     7     1   ar
    34    26    21   ar
    35    14     9   ar
    36    34    28   ar
    37    17    19    1
    38    17    20    1
