@<TRIPOS>MOLECULE
*****
 27 29 0 0 0
SMALL
GASTEIGER

@<TRIPOS>ATOM
      1 C          65.8150   94.0470   10.9427 C.ar    1  UNL1        0.1655
      2 N          66.4026   94.2665   12.3053 N.ar    1  UNL1       -0.2239
      3 C          65.9852   93.1217   13.1800 C.ar    1  UNL1        0.0892
      4 C          66.2659   92.8036   14.6188 C.ar    1  UNL1        0.0197
      5 C          65.7009   91.5586   15.2356 C.ar    1  UNL1        0.0016
      6 C          64.8553   90.6315   14.4137 C.ar    1  UNL1        0.0021
      7 C          64.5746   90.9495   12.9750 C.ar    1  UNL1        0.0081
      8 C          65.1396   92.1946   12.3581 C.ar    1  UNL1        0.0497
      9 S          65.0344   92.7665   10.9754 S.2     1  UNL1       -0.0514
     10 C          64.2903   89.3864   15.0306 C.ar    1  UNL1        0.0192
     11 C          63.3607   89.4858   16.2036 C.ar    1  UNL1        0.1002
     12 N          62.7958   88.2406   16.8205 N.ar    1  UNL1       -0.2297
     13 C          63.1605   86.8961   16.2644 C.ar    1  UNL1        0.1292
     14 N          62.5956   85.6510   16.8813 N.pl3   1  UNL1       -0.3427
     15 C          64.0901   86.7967   15.0914 C.ar    1  UNL1        0.1025
     16 C          64.6550   88.0418   14.4745 C.ar    1  UNL1        0.0082
     17 H          61.9854   85.7162   17.6511 H       1  UNL1        0.1437
     18 H          62.8349   84.7686   16.5163 H       1  UNL1        0.1437
     19 C          64.4548   85.4522   14.5353 C.3     1  UNL1        0.4211
     20 F          64.8195   84.1077   13.9791 F       1  UNL1       -0.1658
     21 F          63.0504   85.2767   14.0385 F       1  UNL1       -0.1658
     22 F          65.8593   85.6277   15.0320 F       1  UNL1       -0.1658
     23 C          67.4814   95.9800    7.9036 C.3     1  UNL1        0.0950
     24 C          67.3173   95.0775    9.0904 C.2     1  UNL1        0.2280
     25 O          68.4914   94.3030    9.6117 O.2     1  UNL1       -0.2747
     26 N          65.9791   94.9495    9.7559 N.am    1  UNL1       -0.2641
     27 H          65.2086   95.4578    9.4137 H       1  UNL1        0.1567
@<TRIPOS>BOND
     1    23    24    1
     2    24    25    2
     3    24    26   am
     4    26     1    1
     5     1     2   ar
     6     2     3   ar
     7     3     4   ar
     8     4     5   ar
     9     5     6   ar
    10     6    10    1
    11    10    11   ar
    12    11    12   ar
    13    12    13   ar
    14    13    14    1
    15    13    15   ar
    16    15    19    1
    17    19    20    1
    18    19    21    1
    19    19    22    1
    20    15    16   ar
    21     6     7   ar
    22     7     8   ar
    23     8     9   ar
    24     9     1   ar
    25     8     3   ar
    26    16    10   ar
    27    26    27    1
    28    14    17    1
    29    14    18    1
@<TRIPOS>MOLECULE
*****
 27 29 0 0 0
SMALL
GASTEIGER

@<TRIPOS>ATOM
      1 C          63.1599   84.3576   15.4563 C.ar    1  UNL1        0.1655
      2 N          62.6720   85.2906   16.5247 N.ar    1  UNL1       -0.2239
      3 C          63.1187   86.6775   16.1684 C.ar    1  UNL1        0.0892
      4 C          62.9285   87.9996   16.8509 C.ar    1  UNL1        0.0197
      5 C          63.5023   89.2459   16.2447 C.ar    1  UNL1        0.0016
      6 C          64.2663   89.1701   14.9561 C.ar    1  UNL1        0.0021
      7 C          64.4565   87.8480   14.2736 C.ar    1  UNL1        0.0081
      8 C          63.8827   86.6017   14.8798 C.ar    1  UNL1        0.0497
      9 S          63.9082   85.1679   14.4397 S.2     1  UNL1       -0.0514
     10 C          64.8401   90.4165   14.3500 C.ar    1  UNL1        0.0192
     11 C          64.1314   91.0930   13.2142 C.ar    1  UNL1        0.1002
     12 N          64.7052   92.3394   12.6080 N.ar    1  UNL1       -0.2297
     13 C          65.9877   92.9092   13.1377 C.ar    1  UNL1        0.1292
     14 N          66.5615   94.1555   12.5317 N.pl3   1  UNL1       -0.3427
     15 C          66.6963   92.2326   14.2736 C.ar    1  UNL1        0.1025
     16 C          66.1225   90.9863   14.8797 C.ar    1  UNL1        0.0082
     17 H          66.0963   94.5996   11.7862 H       1  UNL1        0.1437
     18 H          67.4032   94.5295   12.8793 H       1  UNL1        0.1437
     19 C          67.9788   92.8024   14.8033 C.3     1  UNL1        0.4211
     20 F          69.2613   93.3723   15.3330 F       1  UNL1       -0.1658
     21 F          68.7462   92.0441   13.7612 F       1  UNL1       -0.1658
     22 F          67.2114   93.5608   15.8454 F       1  UNL1       -0.1658
     23 C          62.3413   80.7276   14.0768 C.3     1  UNL1        0.0950
     24 C          62.5627   82.2105   14.1209 C.2     1  UNL1        0.2280
     25 O          62.4084   83.0293   12.8735 O.2     1  UNL1       -0.2747
     26 N          62.9385   82.8747   15.4122 N.am    1  UNL1       -0.2641
     27 H          63.0398   82.3373   16.2309 H       1  UNL1        0.1567
@<TRIPOS>BOND
     1    23    24    1
     2    24    25    2
     3    24    26   am
     4    26     1    1
     5     1     2   ar
     6     2     3   ar
     7     3     4   ar
     8     4     5   ar
     9     5     6   ar
    10     6    10    1
    11    10    11   ar
    12    11    12   ar
    13    12    13   ar
    14    13    14    1
    15    13    15   ar
    16    15    19    1
    17    19    20    1
    18    19    21    1
    19    19    22    1
    20    15    16   ar
    21     6     7   ar
    22     7     8   ar
    23     8     9   ar
    24     9     1   ar
    25     8     3   ar
    26    16    10   ar
    27    26    27    1
    28    14    17    1
    29    14    18    1
@<TRIPOS>MOLECULE
*****
 27 29 0 0 0
SMALL
GASTEIGER

@<TRIPOS>ATOM
      1 C          63.4410   83.3651   12.7260 C.ar    1  UNL1        0.1655
      2 N          62.9180   84.3487   11.7215 N.ar    1  UNL1       -0.2239
      3 C          63.1228   85.7283   12.2737 C.ar    1  UNL1        0.0892
      4 C          62.8017   87.0869   11.7250 C.ar    1  UNL1        0.0197
      5 C          63.1302   88.3144   12.5220 C.ar    1  UNL1        0.0016
      6 C          63.7797   88.1833   13.8677 C.ar    1  UNL1        0.0021
      7 C          64.1007   86.8248   14.4164 C.ar    1  UNL1        0.0081
      8 C          63.7723   85.5973   13.6194 C.ar    1  UNL1        0.0497
      9 S          63.9689   84.1367   13.8989 S.2     1  UNL1       -0.0514
     10 C          64.1081   89.4110   14.6647 C.ar    1  UNL1        0.0192
     11 C          63.2678   89.7825   15.8504 C.ar    1  UNL1        0.1002
     12 N          63.5962   91.0101   16.6474 N.ar    1  UNL1       -0.2297
     13 C          64.7650   91.8662   16.2587 C.ar    1  UNL1        0.1292
     14 N          65.0935   93.0937   17.0556 N.pl3   1  UNL1       -0.3427
     15 C          65.6054   91.4946   15.0730 C.ar    1  UNL1        0.1025
     16 C          65.2769   90.2670   14.2761 C.ar    1  UNL1        0.0082
     17 H          64.5419   93.3376   17.8338 H       1  UNL1        0.1437
     18 H          65.8606   93.6556   16.8005 H       1  UNL1        0.1437
     19 C          66.7742   92.3506   14.6843 C.3     1  UNL1        0.4211
     20 F          67.9430   93.2067   14.2956 F       1  UNL1       -0.1658
     21 F          65.8822   93.1642   13.7941 F       1  UNL1       -0.1658
     22 F          67.6661   91.5370   15.5746 F       1  UNL1       -0.1658
     23 C          62.4463   79.5540   13.2120 C.3     1  UNL1        0.0950
     24 C          62.4506   81.0471   13.3554 C.2     1  UNL1        0.2280
     25 O          61.4686   81.7154   14.2715 O.2     1  UNL1       -0.2747
     26 N          63.4367   81.8719   12.5826 N.am    1  UNL1       -0.2641
     27 H          64.0812   81.4333   11.9813 H       1  UNL1        0.1567
@<TRIPOS>BOND
     1    23    24    1
     2    24    25    2
     3    24    26   am
     4    26     1    1
     5     1     2   ar
     6     2     3   ar
     7     3     4   ar
     8     4     5   ar
     9     5     6   ar
    10     6    10    1
    11    10    11   ar
    12    11    12   ar
    13    12    13   ar
    14    13    14    1
    15    13    15   ar
    16    15    19    1
    17    19    20    1
    18    19    21    1
    19    19    22    1
    20    15    16   ar
    21     6     7   ar
    22     7     8   ar
    23     8     9   ar
    24     9     1   ar
    25     8     3   ar
    26    16    10   ar
    27    26    27    1
    28    14    17    1
    29    14    18    1
@<TRIPOS>MOLECULE
*****
 27 29 0 0 0
SMALL
GASTEIGER

@<TRIPOS>ATOM
      1 C          63.3400   84.5084   15.4680 C.ar    1  UNL1        0.1655
      2 N          62.7062   85.3818   16.5098 N.ar    1  UNL1       -0.2239
      3 C          63.1314   86.7966   16.2498 C.ar    1  UNL1        0.0892
      4 C          62.8180   88.0841   16.9527 C.ar    1  UNL1        0.0197
      5 C          63.4012   89.3725   16.4531 C.ar    1  UNL1        0.0016
      6 C          64.2979   89.3735   15.2506 C.ar    1  UNL1        0.0021
      7 C          64.6113   88.0860   14.5477 C.ar    1  UNL1        0.0081
      8 C          64.0281   86.7976   15.0473 C.ar    1  UNL1        0.0497
      9 S          64.1570   85.3834   14.5642 S.2     1  UNL1       -0.0514
     10 C          64.8811   90.6621   14.7510 C.ar    1  UNL1        0.0192
     11 C          65.2355   91.7506   15.7203 C.ar    1  UNL1        0.1002
     12 N          65.8188   93.0391   15.2207 N.ar    1  UNL1       -0.2297
     13 C          66.0476   93.2391   13.7518 C.ar    1  UNL1        0.1292
     14 N          66.6308   94.5276   13.2522 N.pl3   1  UNL1       -0.3427
     15 C          65.6932   92.1505   12.7825 C.ar    1  UNL1        0.1025
     16 C          65.1100   90.8620   13.2821 C.ar    1  UNL1        0.0082
     17 H          66.8634   95.2420   13.8884 H       1  UNL1        0.1437
     18 H          66.7810   94.6588   12.2881 H       1  UNL1        0.1437
     19 C          65.9220   92.3505   11.3136 C.3     1  UNL1        0.4211
     20 F          66.1508   92.5505    9.8447 F       1  UNL1       -0.1658
     21 F          64.4655   92.6574   11.1285 F       1  UNL1       -0.1658
     22 F          67.3786   92.0435   11.4987 F       1  UNL1       -0.1658
     23 C          62.5557   80.9286   13.9448 C.3     1  UNL1        0.0950
     24 C          62.7115   82.4159   14.0622 C.2     1  UNL1        0.2280
     25 O          62.3945   83.2979   12.8910 O.2     1  UNL1       -0.2747
     26 N          63.1842   83.0211   15.3506 N.am    1  UNL1       -0.2641
     27 H          63.3922   82.4422   16.1193 H       1  UNL1        0.1567
@<TRIPOS>BOND
     1    23    24    1
     2    24    25    2
     3    24    26   am
     4    26     1    1
     5     1     2   ar
     6     2     3   ar
     7     3     4   ar
     8     4     5   ar
     9     5     6   ar
    10     6    10    1
    11    10    11   ar
    12    11    12   ar
    13    12    13   ar
    14    13    14    1
    15    13    15   ar
    16    15    19    1
    17    19    20    1
    18    19    21    1
    19    19    22    1
    20    15    16   ar
    21     6     7   ar
    22     7     8   ar
    23     8     9   ar
    24     9     1   ar
    25     8     3   ar
    26    16    10   ar
    27    26    27    1
    28    14    17    1
    29    14    18    1
@<TRIPOS>MOLECULE
*****
 27 29 0 0 0
SMALL
GASTEIGER

@<TRIPOS>ATOM
      1 C          66.2215   92.6668   14.0845 C.ar    1  UNL1        0.1655
      2 N          65.8559   91.3838   14.7703 N.ar    1  UNL1       -0.2239
      3 C          64.8802   90.6527   13.8964 C.ar    1  UNL1        0.0892
      4 C          64.1774   89.3376   14.0586 C.ar    1  UNL1        0.0197
      5 C          63.2370   88.8536   12.9949 C.ar    1  UNL1        0.0016
      6 C          62.9996   89.6848   11.7690 C.ar    1  UNL1        0.0021
      7 C          63.7024   90.9999   11.6069 C.ar    1  UNL1        0.0081
      8 C          64.6428   91.4839   12.6706 C.ar    1  UNL1        0.0497
      9 S          65.4717   92.7286   12.7868 S.2     1  UNL1       -0.0514
     10 C          62.0592   89.2008   10.7053 C.ar    1  UNL1        0.0192
     11 C          60.8956   90.0511   10.2895 C.ar    1  UNL1        0.1002
     12 N          59.9552   89.5670    9.2257 N.ar    1  UNL1       -0.2297
     13 C          60.1785   88.2327    8.5779 C.ar    1  UNL1        0.1292
     14 N          59.2381   87.7487    7.5142 N.pl3   1  UNL1       -0.3427
     15 C          61.3422   87.3824    8.9937 C.ar    1  UNL1        0.1025
     16 C          62.2825   87.8664   10.0574 C.ar    1  UNL1        0.0082
     17 H          58.4744   88.3067    7.2412 H       1  UNL1        0.1437
     18 H          59.3847   86.8729    7.0890 H       1  UNL1        0.1437
     19 C          61.5655   86.0481    8.3459 C.3     1  UNL1        0.4211
     20 F          61.7887   84.7138    7.6980 F       1  UNL1       -0.1658
     21 F          63.0341   86.3387    8.2535 F       1  UNL1       -0.1658
     22 F          60.0968   85.7575    8.4383 F       1  UNL1       -0.1658
     23 C          69.2049   94.3550   16.0842 C.3     1  UNL1        0.0950
     24 C          68.2562   93.3163   15.5637 C.2     1  UNL1        0.2280
     25 O          68.3935   91.8882   16.0018 O.2     1  UNL1       -0.2747
     26 N          67.1702   93.7055   14.6050 N.am    1  UNL1       -0.2641
     27 H          67.0801   94.6428   14.3174 H       1  UNL1        0.1567
@<TRIPOS>BOND
     1    23    24    1
     2    24    25    2
     3    24    26   am
     4    26     1    1
     5     1     2   ar
     6     2     3   ar
     7     3     4   ar
     8     4     5   ar
     9     5     6   ar
    10     6    10    1
    11    10    11   ar
    12    11    12   ar
    13    12    13   ar
    14    13    14    1
    15    13    15   ar
    16    15    19    1
    17    19    20    1
    18    19    21    1
    19    19    22    1
    20    15    16   ar
    21     6     7   ar
    22     7     8   ar
    23     8     9   ar
    24     9     1   ar
    25     8     3   ar
    26    16    10   ar
    27    26    27    1
    28    14    17    1
    29    14    18    1
@<TRIPOS>MOLECULE
*****
 27 29 0 0 0
SMALL
GASTEIGER

@<TRIPOS>ATOM
      1 C          59.3539   88.1579    7.6670 C.ar    1  UNL1        0.1655
      2 N          60.3547   87.2455    7.0219 N.ar    1  UNL1       -0.2239
      3 C          61.0908   86.5214    8.1099 C.ar    1  UNL1        0.0892
      4 C          62.1875   85.4989    8.0711 C.ar    1  UNL1        0.0197
      5 C          62.7385   84.9412    9.3499 C.ar    1  UNL1        0.0016
      6 C          62.1927   85.4060   10.6675 C.ar    1  UNL1        0.0021
      7 C          61.0959   86.4285   10.7063 C.ar    1  UNL1        0.0081
      8 C          60.5450   86.9862    9.4275 C.ar    1  UNL1        0.0497
      9 S          59.4716   87.9976    9.1537 S.2     1  UNL1       -0.0514
     10 C          62.7437   84.8483   11.9463 C.ar    1  UNL1        0.0192
     11 C          63.4269   85.7546   12.9270 C.ar    1  UNL1        0.1002
     12 N          63.9779   85.1968   14.2058 N.ar    1  UNL1       -0.2297
     13 C          63.8457   83.7327   14.5039 C.ar    1  UNL1        0.1292
     14 N          64.3966   83.1749   15.7827 N.pl3   1  UNL1       -0.3427
     15 C          63.1624   82.8264   13.5232 C.ar    1  UNL1        0.1025
     16 C          62.6115   83.3841   12.2444 C.ar    1  UNL1        0.0082
     17 H          64.8450   83.7698   16.4264 H       1  UNL1        0.1437
     18 H          64.3098   82.2140   15.9783 H       1  UNL1        0.1437
     19 C          63.0302   81.3622   13.8213 C.3     1  UNL1        0.4211
     20 F          62.8979   79.8981   14.1194 F       1  UNL1       -0.1658
     21 F          64.3336   81.1029   13.1257 F       1  UNL1       -0.1658
     22 F          61.7268   81.6216   14.5169 F       1  UNL1       -0.1658
     23 C          57.9752   91.0057    5.2714 C.3     1  UNL1        0.0950
     24 C          58.9265   90.0933    5.9873 C.2     1  UNL1        0.2280
     25 O          60.4018   90.2041    5.7395 O.2     1  UNL1       -0.2747
     26 N          58.4026   89.0702    6.9510 N.am    1  UNL1       -0.2641
     27 H          57.4344   88.9975    7.1137 H       1  UNL1        0.1567
@<TRIPOS>BOND
     1    23    24    1
     2    24    25    2
     3    24    26   am
     4    26     1    1
     5     1     2   ar
     6     2     3   ar
     7     3     4   ar
     8     4     5   ar
     9     5     6   ar
    10     6    10    1
    11    10    11   ar
    12    11    12   ar
    13    12    13   ar
    14    13    14    1
    15    13    15   ar
    16    15    19    1
    17    19    20    1
    18    19    21    1
    19    19    22    1
    20    15    16   ar
    21     6     7   ar
    22     7     8   ar
    23     8     9   ar
    24     9     1   ar
    25     8     3   ar
    26    16    10   ar
    27    26    27    1
    28    14    17    1
    29    14    18    1
@<TRIPOS>MOLECULE
*****
 27 29 0 0 0
SMALL
GASTEIGER

@<TRIPOS>ATOM
      1 C          62.8907   84.2503   13.8421 C.ar    1  UNL1        0.1655
      2 N          62.2432   84.9355   12.6754 N.ar    1  UNL1       -0.2239
      3 C          62.7262   86.3553   12.6452 C.ar    1  UNL1        0.0892
      4 C          62.4267   87.4979   11.7207 C.ar    1  UNL1        0.0197
      5 C          63.0733   88.8328   11.9442 C.ar    1  UNL1        0.0016
      6 C          64.0193   89.0251   13.0922 C.ar    1  UNL1        0.0021
      7 C          64.3188   87.8825   14.0168 C.ar    1  UNL1        0.0081
      8 C          63.6722   86.5477   13.7933 C.ar    1  UNL1        0.0497
      9 S          63.7739   85.2467   14.5330 S.2     1  UNL1       -0.0514
     10 C          64.6660   90.3600   13.3157 C.ar    1  UNL1        0.0192
     11 C          64.3696   91.5015   12.3889 C.ar    1  UNL1        0.1002
     12 N          65.0162   92.8365   12.6123 N.ar    1  UNL1       -0.2297
     13 C          65.9592   93.0299   13.7627 C.ar    1  UNL1        0.1292
     14 N          66.6057   94.3647   13.9862 N.pl3   1  UNL1       -0.3427
     15 C          66.2555   91.8883   14.6896 C.ar    1  UNL1        0.1025
     16 C          65.6089   90.5534   14.4661 C.ar    1  UNL1        0.0082
     17 H          66.4112   95.1139   13.3779 H       1  UNL1        0.1437
     18 H          67.2247   94.4916   14.7413 H       1  UNL1        0.1437
     19 C          67.1985   92.0817   15.8400 C.3     1  UNL1        0.4211
     20 F          68.1415   92.2751   16.9904 F       1  UNL1       -0.1658
     21 F          68.3116   91.4897   15.0271 F       1  UNL1       -0.1658
     22 F          66.0855   92.6736   16.6529 F       1  UNL1       -0.1658
     23 C          62.4591   80.3122   13.6085 C.3     1  UNL1        0.0950
     24 C          62.6596   81.7426   13.2037 C.2     1  UNL1        0.2280
     25 O          62.8293   82.0955   11.7557 O.2     1  UNL1       -0.2747
     26 N          62.6903   82.8199   14.2469 N.am    1  UNL1       -0.2641
     27 H          62.5789   82.5883   15.1972 H       1  UNL1        0.1567
@<TRIPOS>BOND
     1    23    24    1
     2    24    25    2
     3    24    26   am
     4    26     1    1
     5     1     2   ar
     6     2     3   ar
     7     3     4   ar
     8     4     5   ar
     9     5     6   ar
    10     6    10    1
    11    10    11   ar
    12    11    12   ar
    13    12    13   ar
    14    13    14    1
    15    13    15   ar
    16    15    19    1
    17    19    20    1
    18    19    21    1
    19    19    22    1
    20    15    16   ar
    21     6     7   ar
    22     7     8   ar
    23     8     9   ar
    24     9     1   ar
    25     8     3   ar
    26    16    10   ar
    27    26    27    1
    28    14    17    1
    29    14    18    1
@<TRIPOS>MOLECULE
*****
 27 29 0 0 0
SMALL
GASTEIGER

@<TRIPOS>ATOM
      1 C          65.8046   92.7620   13.7432 C.ar    1  UNL1        0.1655
      2 N          65.0722   92.7893   15.0520 N.ar    1  UNL1       -0.2239
      3 C          64.5972   91.3974   15.3466 C.ar    1  UNL1        0.0892
      4 C          63.8218   90.8234   16.4952 C.ar    1  UNL1        0.0197
      5 C          63.4853   89.3619   16.5170 C.ar    1  UNL1        0.0016
      6 C          63.9241   88.4742   15.3903 C.ar    1  UNL1        0.0021
      7 C          64.6995   89.0482   14.2417 C.ar    1  UNL1        0.0081
      8 C          65.0360   90.5097   14.2198 C.ar    1  UNL1        0.0497
      9 S          65.7822   91.3532   13.2289 S.2     1  UNL1       -0.0514
     10 C          63.5875   87.0126   15.4122 C.ar    1  UNL1        0.0192
     11 C          62.9312   86.4121   16.6199 C.ar    1  UNL1        0.1002
     12 N          62.5946   84.9505   16.6418 N.ar    1  UNL1       -0.2297
     13 C          62.9143   84.0894   15.4559 C.ar    1  UNL1        0.1292
     14 N          62.5777   82.6279   15.4778 N.pl3   1  UNL1       -0.3427
     15 C          63.5706   84.6900   14.2482 C.ar    1  UNL1        0.1025
     16 C          63.9072   86.1515   14.2263 C.ar    1  UNL1        0.0082
     17 H          62.1469   82.2337   16.2705 H       1  UNL1        0.1437
     18 H          62.7875   82.0627   14.6995 H       1  UNL1        0.1437
     19 C          63.8903   83.8289   13.0623 C.3     1  UNL1        0.4211
     20 F          64.2100   82.9678   11.8764 F       1  UNL1       -0.1658
     21 F          62.6183   84.2687   12.4000 F       1  UNL1       -0.1658
     22 F          65.1623   83.3891   13.7245 F       1  UNL1       -0.1658
     23 C          66.7440   95.4399   10.9690 C.3     1  UNL1        0.0950
     24 C          66.1020   94.2647   11.6448 C.2     1  UNL1        0.2280
     25 O          65.1153   93.4169   10.8979 O.2     1  UNL1       -0.2747
     26 N          66.4466   93.9373   13.0675 N.am    1  UNL1       -0.2641
     27 H          67.0942   94.4937   13.5577 H       1  UNL1        0.1567
@<TRIPOS>BOND
     1    23    24    1
     2    24    25    2
     3    24    26   am
     4    26     1    1
     5     1     2   ar
     6     2     3   ar
     7     3     4   ar
     8     4     5   ar
     9     5     6   ar
    10     6    10    1
    11    10    11   ar
    12    11    12   ar
    13    12    13   ar
    14    13    14    1
    15    13    15   ar
    16    15    19    1
    17    19    20    1
    18    19    21    1
    19    19    22    1
    20    15    16   ar
    21     6     7   ar
    22     7     8   ar
    23     8     9   ar
    24     9     1   ar
    25     8     3   ar
    26    16    10   ar
    27    26    27    1
    28    14    17    1
    29    14    18    1
@<TRIPOS>MOLECULE
*****
 27 29 0 0 0
SMALL
GASTEIGER

@<TRIPOS>ATOM
      1 C          63.5972   82.6471   13.6932 C.ar    1  UNL1        0.1655
      2 N          62.9654   82.8524   15.0381 N.ar    1  UNL1       -0.2239
      3 C          63.1115   84.3000   15.4028 C.ar    1  UNL1        0.0892
      4 C          62.6804   85.0795   16.6097 C.ar    1  UNL1        0.0197
      5 C          62.9713   86.5484   16.6970 C.ar    1  UNL1        0.0016
      6 C          63.6934   87.2378   15.5775 C.ar    1  UNL1        0.0021
      7 C          64.1245   86.4583   14.3707 C.ar    1  UNL1        0.0081
      8 C          63.8336   84.9895   14.2833 C.ar    1  UNL1        0.0497
      9 S          64.1337   83.9679   13.2267 S.2     1  UNL1       -0.0514
     10 C          63.9843   88.7068   15.6649 C.ar    1  UNL1        0.0192
     11 C          63.2980   89.5469   16.7008 C.ar    1  UNL1        0.1002
     12 N          63.5889   91.0159   16.7882 N.ar    1  UNL1       -0.2297
     13 C          64.5661   91.6446   15.8396 C.ar    1  UNL1        0.1292
     14 N          64.8571   93.1135   15.9270 N.pl3   1  UNL1       -0.3427
     15 C          65.2524   90.8044   14.8037 C.ar    1  UNL1        0.1025
     16 C          64.9615   89.3355   14.7163 C.ar    1  UNL1        0.0082
     17 H          64.4066   93.6650   16.6068 H       1  UNL1        0.1437
     18 H          65.4984   93.5262   15.3044 H       1  UNL1        0.1437
     19 C          66.2296   91.4331   13.8551 C.3     1  UNL1        0.4211
     20 F          67.2069   92.0619   12.9066 F       1  UNL1       -0.1658
     21 F          65.1211   91.6763   12.8743 F       1  UNL1       -0.1658
     22 F          67.3382   91.1900   14.8360 F       1  UNL1       -0.1658
     23 C          62.5737   79.1325   12.1602 C.3     1  UNL1        0.0950
     24 C          62.4928   80.4306   12.9074 C.2     1  UNL1        0.2280
     25 O          61.2264   80.8104   13.6160 O.2     1  UNL1       -0.2747
     26 N          63.6781   81.3490   12.9460 N.am    1  UNL1       -0.2641
     27 H          64.5093   81.0997   12.4809 H       1  UNL1        0.1567
@<TRIPOS>BOND
     1    23    24    1
     2    24    25    2
     3    24    26   am
     4    26     1    1
     5     1     2   ar
     6     2     3   ar
     7     3     4   ar
     8     4     5   ar
     9     5     6   ar
    10     6    10    1
    11    10    11   ar
    12    11    12   ar
    13    12    13   ar
    14    13    14    1
    15    13    15   ar
    16    15    19    1
    17    19    20    1
    18    19    21    1
    19    19    22    1
    20    15    16   ar
    21     6     7   ar
    22     7     8   ar
    23     8     9   ar
    24     9     1   ar
    25     8     3   ar
    26    16    10   ar
    27    26    27    1
    28    14    17    1
    29    14    18    1
