@<TRIPOS>MOLECULE
*****
 32 36 0 0 0
SMALL
GASTEIGER

@<TRIPOS>ATOM
      1 C          63.9365   90.4151   12.9455 C.ar    1  UNL1        0.1012
      2 C          64.5164   90.0420   14.2777 C.ar    1  UNL1        0.1010
      3 N          65.6090   91.0188   14.5975 N.ar    1  UNL1       -0.2205
      4 C          65.7044   91.9955   13.4630 C.ar    1  UNL1        0.1795
      5 S          66.4386   93.2027   12.9596 S.2     1  UNL1       -0.0480
      6 C          65.8587   93.5757   11.6275 C.ar    1  UNL1        0.0573
      7 C          64.7661   92.5990   11.3076 C.ar    1  UNL1        0.0890
      8 N          64.6707   91.6223   12.4421 N.ar    1  UNL1       -0.2818
      9 C          61.8669   87.5650   11.1168 C.ar    1  UNL1        0.2724
     10 N          60.5831   88.2861   10.8307 N.ar    1  UNL1       -0.2094
     11 C          60.4171   89.7169   11.2496 C.ar    1  UNL1        0.1035
     12 C          61.5349   90.4265   11.9545 C.ar    1  UNL1        0.0414
     13 C          62.8187   89.7054   12.2406 C.ar    1  UNL1        0.1033
     14 N          62.9847   88.2747   11.8217 N.ar    1  UNL1       -0.2094
     15 C          62.1991   84.7036   10.2791 C.3     1  UNL1        0.1853
     16 S          62.0330   86.1342   10.6980 S.O2    1  UNL1        0.0441
     17 O          61.7039   85.6880   12.0918 O.2     1  UNL1       -0.1656
     18 O          62.3621   86.5805    9.3042 O.2     1  UNL1       -0.1656
     19 C          64.0803   88.8939   15.1388 C.ar    1  UNL1        0.0222
     20 C          63.2408   89.1459   16.3561 C.ar    1  UNL1        0.0017
     21 C          62.8047   87.9978   17.2172 C.ar    1  UNL1        0.0032
     22 C          63.2080   86.5976   16.8610 C.ar    1  UNL1        0.0369
     23 C          64.0474   86.3455   15.6437 C.ar    1  UNL1        0.1391
     24 C          64.4836   87.4937   14.7826 C.ar    1  UNL1        0.0385
     25 O          64.4507   84.9454   15.2876 O.3     1  UNL1       -0.4706
     26 C          64.2601   84.4432   13.8871 C.3     1  UNL1        0.2320
     27 C          63.5206   83.1610   13.6442 C.ar    1  UNL1        0.0212
     28 C          63.8717   82.3047   12.4636 C.ar    1  UNL1       -0.0007
     29 C          63.1322   81.0225   12.2207 C.ar    1  UNL1       -0.0002
     30 C          62.0416   80.5965   13.1584 C.ar    1  UNL1       -0.0000
     31 C          61.6906   81.4528   14.3389 C.ar    1  UNL1       -0.0002
     32 C          62.4301   82.7350   14.5818 C.ar    1  UNL1       -0.0007
@<TRIPOS>BOND
     1    15    16    1
     2    16    17    2
     3    16    18    2
     4    16     9    1
     5     9    10   ar
     6    10    11   ar
     7    11    12   ar
     8    12    13   ar
     9    13     1    1
    10     1     2   ar
    11     2    19    1
    12    19    20   ar
    13    20    21   ar
    14    21    22   ar
    15    22    23   ar
    16    23    25    1
    17    25    26    1
    18    26    27    1
    19    27    28   ar
    20    28    29   ar
    21    29    30   ar
    22    30    31   ar
    23    31    32   ar
    24    23    24   ar
    25     2     3   ar
    26     3     4   ar
    27     4     5   ar
    28     5     6   ar
    29     6     7   ar
    30     7     8   ar
    31    13    14   ar
    32    14     9   ar
    33     8     1   ar
    34    24    19   ar
    35     8     4   ar
    36    32    27   ar
@<TRIPOS>MOLECULE
*****
 32 36 0 0 0
SMALL
GASTEIGER

@<TRIPOS>ATOM
      1 C          64.2181   90.2817   13.5274 C.ar    1  UNL1        0.1012
      2 C          63.4702   90.4889   12.2436 C.ar    1  UNL1        0.1010
      3 N          64.1365   91.6043   11.4939 N.ar    1  UNL1       -0.2205
      4 C          65.2962   92.0864   12.3142 C.ar    1  UNL1        0.1795
      5 S          66.4246   93.0737   12.3578 S.2     1  UNL1       -0.0480
      6 C          67.1724   92.8664   13.6414 C.ar    1  UNL1        0.0573
      7 C          66.5062   91.7511   14.3912 C.ar    1  UNL1        0.0890
      8 N          65.3465   91.2690   13.5709 N.ar    1  UNL1       -0.2818
      9 C          63.8457   86.7962   15.3882 C.ar    1  UNL1        0.2724
     10 N          63.2468   87.2335   16.6920 N.ar    1  UNL1       -0.2094
     11 C          62.9716   88.6869   16.9410 C.ar    1  UNL1        0.1035
     12 C          63.2954   89.7030   15.8862 C.ar    1  UNL1        0.0414
     13 C          63.8943   89.2657   14.5822 C.ar    1  UNL1        0.1033
     14 N          64.1694   87.8123   14.3333 N.ar    1  UNL1       -0.2094
     15 C          64.3960   83.8895   14.8901 C.3     1  UNL1        0.1853
     16 S          64.1208   85.3428   15.1391 S.O2    1  UNL1        0.0441
     17 O          62.6842   85.0215   15.4273 O.2     1  UNL1       -0.1656
     18 O          65.5573   85.6642   14.8509 O.2     1  UNL1       -0.1656
     19 C          62.2674   89.7165   11.7895 C.ar    1  UNL1        0.0222
     20 C          60.9093   90.0588   12.3268 C.ar    1  UNL1        0.0017
     21 C          59.7065   89.2864   11.8727 C.ar    1  UNL1        0.0032
     22 C          59.8615   88.1715   10.8811 C.ar    1  UNL1        0.0369
     23 C          61.2195   87.8291   10.3438 C.ar    1  UNL1        0.1391
     24 C          62.4224   88.6016   10.7980 C.ar    1  UNL1        0.0385
     25 O          61.3745   86.7142    9.3523 O.3     1  UNL1       -0.4706
     26 C          62.6931   86.0133    9.2121 C.3     1  UNL1        0.2320
     27 C          62.9766   84.7804   10.0181 C.ar    1  UNL1        0.0212
     28 C          63.9189   83.7394    9.4903 C.ar    1  UNL1       -0.0007
     29 C          64.2024   82.5065   10.2963 C.ar    1  UNL1       -0.0002
     30 C          63.5435   82.3147   11.6302 C.ar    1  UNL1       -0.0000
     31 C          62.6013   83.3556   12.1579 C.ar    1  UNL1       -0.0002
     32 C          62.3178   84.5885   11.3519 C.ar    1  UNL1       -0.0007
@<TRIPOS>BOND
     1    15    16    1
     2    16    17    2
     3    16    18    2
     4    16     9    1
     5     9    10   ar
     6    10    11   ar
     7    11    12   ar
     8    12    13   ar
     9    13     1    1
    10     1     2   ar
    11     2    19    1
    12    19    20   ar
    13    20    21   ar
    14    21    22   ar
    15    22    23   ar
    16    23    25    1
    17    25    26    1
    18    26    27    1
    19    27    28   ar
    20    28    29   ar
    21    29    30   ar
    22    30    31   ar
    23    31    32   ar
    24    23    24   ar
    25     2     3   ar
    26     3     4   ar
    27     4     5   ar
    28     5     6   ar
    29     6     7   ar
    30     7     8   ar
    31    13    14   ar
    32    14     9   ar
    33     8     1   ar
    34    24    19   ar
    35     8     4   ar
    36    32    27   ar
@<TRIPOS>MOLECULE
*****
 32 36 0 0 0
SMALL
GASTEIGER

@<TRIPOS>ATOM
      1 C          66.6003   92.2986   12.8960 C.ar    1  UNL1        0.1012
      2 C          65.2890   91.6493   13.2262 C.ar    1  UNL1        0.1010
      3 N          65.1934   91.5305   14.7185 N.ar    1  UNL1       -0.2205
      4 C          66.4456   92.1063   15.3105 C.ar    1  UNL1        0.1795
      5 S          67.1604   92.3888   16.5986 S.2     1  UNL1       -0.0480
      6 C          68.4717   93.0380   16.2684 C.ar    1  UNL1        0.0573
      7 C          68.5673   93.1568   14.7761 C.ar    1  UNL1        0.0890
      8 N          67.3151   92.5810   14.1841 N.ar    1  UNL1       -0.2818
      9 C          67.2733   94.2323    9.4963 C.ar    1  UNL1        0.2724
     10 N          68.1225   93.2346    8.7660 N.ar    1  UNL1       -0.2094
     11 C          68.4643   91.9249    9.4123 C.ar    1  UNL1        0.1035
     12 C          67.9569   91.6128   10.7890 C.ar    1  UNL1        0.0414
     13 C          67.1077   92.6106   11.5193 C.ar    1  UNL1        0.1033
     14 N          66.7659   93.9203   10.8730 N.ar    1  UNL1       -0.2094
     15 C          66.5895   96.8519    8.2037 C.3     1  UNL1        0.1853
     16 S          66.9314   95.5421    8.8500 S.O2    1  UNL1        0.0441
     17 O          67.0137   94.8967    7.4984 O.2     1  UNL1       -0.1656
     18 O          66.8491   96.1875   10.2015 O.2     1  UNL1       -0.1656
     19 C          64.2549   91.1981   12.2378 C.ar    1  UNL1        0.0222
     20 C          64.1513   91.8707   10.9010 C.ar    1  UNL1        0.0017
     21 C          63.1173   91.4195    9.9126 C.ar    1  UNL1        0.0032
     22 C          62.1867   90.2956   10.2609 C.ar    1  UNL1        0.0369
     23 C          62.2903   89.6231   11.5977 C.ar    1  UNL1        0.1391
     24 C          63.3244   90.0744   12.5861 C.ar    1  UNL1        0.0385
     25 O          61.3598   88.4993   11.9459 O.3     1  UNL1       -0.4706
     26 C          60.8976   87.5506   10.8801 C.3     1  UNL1        0.2320
     27 C          61.7651   86.3952   10.4770 C.ar    1  UNL1        0.0212
     28 C          62.1527   85.3589   11.4900 C.ar    1  UNL1       -0.0007
     29 C          63.0202   84.2035   11.0868 C.ar    1  UNL1       -0.0002
     30 C          63.5001   84.0844    9.6706 C.ar    1  UNL1       -0.0000
     31 C          63.1125   85.1206    8.6578 C.ar    1  UNL1       -0.0002
     32 C          62.2451   86.2760    9.0609 C.ar    1  UNL1       -0.0007
@<TRIPOS>BOND
     1    15    16    1
     2    16    17    2
     3    16    18    2
     4    16     9    1
     5     9    10   ar
     6    10    11   ar
     7    11    12   ar
     8    12    13   ar
     9    13     1    1
    10     1     2   ar
    11     2    19    1
    12    19    20   ar
    13    20    21   ar
    14    21    22   ar
    15    22    23   ar
    16    23    25    1
    17    25    26    1
    18    26    27    1
    19    27    28   ar
    20    28    29   ar
    21    29    30   ar
    22    30    31   ar
    23    31    32   ar
    24    23    24   ar
    25     2     3   ar
    26     3     4   ar
    27     4     5   ar
    28     5     6   ar
    29     6     7   ar
    30     7     8   ar
    31    13    14   ar
    32    14     9   ar
    33     8     1   ar
    34    24    19   ar
    35     8     4   ar
    36    32    27   ar
@<TRIPOS>MOLECULE
*****
 32 36 0 0 0
SMALL
GASTEIGER

@<TRIPOS>ATOM
      1 C          63.8518   89.7260   12.7545 C.ar    1  UNL1        0.1012
      2 C          64.2667   89.6178   14.1920 C.ar    1  UNL1        0.1010
      3 N          65.0891   90.8261   14.5293 N.ar    1  UNL1       -0.2205
      4 C          65.1826   91.6810   13.3003 C.ar    1  UNL1        0.1795
      5 S          65.7486   92.9561   12.7492 S.2     1  UNL1       -0.0480
      6 C          65.3337   93.0643   11.3118 C.ar    1  UNL1        0.0573
      7 C          64.5113   91.8560   10.9745 C.ar    1  UNL1        0.0890
      8 N          64.4179   91.0011   12.2035 N.ar    1  UNL1       -0.2818
      9 C          61.2889   88.2035   10.1347 C.ar    1  UNL1        0.2724
     10 N          61.3487   86.7481   10.4926 N.ar    1  UNL1       -0.2094
     11 C          62.2429   86.2852   11.6045 C.ar    1  UNL1        0.1035
     12 C          63.0772   87.2779   12.3585 C.ar    1  UNL1        0.0414
     13 C          63.0174   88.7333   12.0006 C.ar    1  UNL1        0.1033
     14 N          62.1233   89.1961   10.8887 N.ar    1  UNL1       -0.2094
     15 C          59.5006   89.1291    7.9109 C.3     1  UNL1        0.1853
     16 S          60.3947   88.6663    9.0228 S.O2    1  UNL1        0.0441
     17 O          60.2178   89.9857    9.7143 O.2     1  UNL1       -0.1656
     18 O          60.5717   87.3470    8.3314 O.2     1  UNL1       -0.1656
     19 C          63.9200   88.4980   15.1278 C.ar    1  UNL1        0.0222
     20 C          63.1705   88.7845   16.3952 C.ar    1  UNL1        0.0017
     21 C          62.8238   87.6647   17.3310 C.ar    1  UNL1        0.0032
     22 C          63.2266   86.2583   16.9994 C.ar    1  UNL1        0.0369
     23 C          63.9761   85.9717   15.7321 C.ar    1  UNL1        0.1391
     24 C          64.3228   87.0916   14.7963 C.ar    1  UNL1        0.0385
     25 O          64.3789   84.5654   15.4006 O.3     1  UNL1       -0.4706
     26 C          64.9455   84.2463   14.0490 C.3     1  UNL1        0.2320
     27 C          64.2495   83.2611   13.1575 C.ar    1  UNL1        0.0212
     28 C          64.5130   83.2692   11.6808 C.ar    1  UNL1       -0.0007
     29 C          63.8170   82.2839   10.7893 C.ar    1  UNL1       -0.0002
     30 C          62.8574   81.2905   11.3745 C.ar    1  UNL1       -0.0000
     31 C          62.5940   81.2824   12.8511 C.ar    1  UNL1       -0.0002
     32 C          63.2900   82.2676   13.7426 C.ar    1  UNL1       -0.0007
@<TRIPOS>BOND
     1    15    16    1
     2    16    17    2
     3    16    18    2
     4    16     9    1
     5     9    10   ar
     6    10    11   ar
     7    11    12   ar
     8    12    13   ar
     9    13     1    1
    10     1     2   ar
    11     2    19    1
    12    19    20   ar
    13    20    21   ar
    14    21    22   ar
    15    22    23   ar
    16    23    25    1
    17    25    26    1
    18    26    27    1
    19    27    28   ar
    20    28    29   ar
    21    29    30   ar
    22    30    31   ar
    23    31    32   ar
    24    23    24   ar
    25     2     3   ar
    26     3     4   ar
    27     4     5   ar
    28     5     6   ar
    29     6     7   ar
    30     7     8   ar
    31    13    14   ar
    32    14     9   ar
    33     8     1   ar
    34    24    19   ar
    35     8     4   ar
    36    32    27   ar
@<TRIPOS>MOLECULE
*****
 32 36 0 0 0
SMALL
GASTEIGER

@<TRIPOS>ATOM
      1 C          64.3981   90.4944   13.8993 C.ar    1  UNL1        0.1012
      2 C          63.7251   90.8505   12.6068 C.ar    1  UNL1        0.1010
      3 N          64.4245   92.0478   12.0346 N.ar    1  UNL1       -0.2205
      4 C          65.5297   92.4316   12.9734 C.ar    1  UNL1        0.1795
      5 S          66.6450   93.4087   13.1998 S.2     1  UNL1       -0.0480
      6 C          67.3180   93.0525   14.4922 C.ar    1  UNL1        0.0573
      7 C          66.6186   91.8553   15.0645 C.ar    1  UNL1        0.0890
      8 N          65.5134   91.4715   14.1258 N.ar    1  UNL1       -0.2818
      9 C          63.9541   86.8133   15.3144 C.ar    1  UNL1        0.2724
     10 N          63.2692   87.0919   16.6194 N.ar    1  UNL1       -0.2094
     11 C          62.9606   88.5048   17.0178 C.ar    1  UNL1        0.1035
     12 C          63.3368   89.6389   16.1111 C.ar    1  UNL1        0.0414
     13 C          64.0218   89.3602   14.8060 C.ar    1  UNL1        0.1033
     14 N          64.3304   87.9474   14.4077 N.ar    1  UNL1       -0.2094
     15 C          64.5715   83.9876   14.5176 C.3     1  UNL1        0.1853
     16 S          64.2628   85.4004   14.9160 S.O2    1  UNL1        0.0441
     17 O          62.8083   85.0511   15.0277 O.2     1  UNL1       -0.1656
     18 O          65.7172   85.7497   14.8042 O.2     1  UNL1       -0.1656
     19 C          62.5577   90.1350   11.9943 C.ar    1  UNL1        0.0222
     20 C          61.4229   90.9190   11.4045 C.ar    1  UNL1        0.0017
     21 C          60.2556   90.2036   10.7920 C.ar    1  UNL1        0.0032
     22 C          60.2229   88.7040   10.7691 C.ar    1  UNL1        0.0369
     23 C          61.3577   87.9200   11.3588 C.ar    1  UNL1        0.1391
     24 C          62.5251   88.6356   11.9714 C.ar    1  UNL1        0.0385
     25 O          61.3250   86.4206   11.3358 O.3     1  UNL1       -0.4706
     26 C          62.3186   85.6613   10.5076 C.3     1  UNL1        0.2320
     27 C          62.0413   85.3994    9.0569 C.ar    1  UNL1        0.0212
     28 C          60.7277   85.8074    8.4587 C.ar    1  UNL1       -0.0007
     29 C          60.4504   85.5455    7.0080 C.ar    1  UNL1       -0.0002
     30 C          61.4870   84.8755    6.1554 C.ar    1  UNL1       -0.0000
     31 C          62.8006   84.4675    6.7536 C.ar    1  UNL1       -0.0002
     32 C          63.0778   84.7294    8.2043 C.ar    1  UNL1       -0.0007
@<TRIPOS>BOND
     1    15    16    1
     2    16    17    2
     3    16    18    2
     4    16     9    1
     5     9    10   ar
     6    10    11   ar
     7    11    12   ar
     8    12    13   ar
     9    13     1    1
    10     1     2   ar
    11     2    19    1
    12    19    20   ar
    13    20    21   ar
    14    21    22   ar
    15    22    23   ar
    16    23    25    1
    17    25    26    1
    18    26    27    1
    19    27    28   ar
    20    28    29   ar
    21    29    30   ar
    22    30    31   ar
    23    31    32   ar
    24    23    24   ar
    25     2     3   ar
    26     3     4   ar
    27     4     5   ar
    28     5     6   ar
    29     6     7   ar
    30     7     8   ar
    31    13    14   ar
    32    14     9   ar
    33     8     1   ar
    34    24    19   ar
    35     8     4   ar
    36    32    27   ar
@<TRIPOS>MOLECULE
*****
 32 36 0 0 0
SMALL
GASTEIGER

@<TRIPOS>ATOM
      1 C          61.6763   87.1350   10.1914 C.ar    1  UNL1        0.1012
      2 C          61.8951   88.5599   10.6060 C.ar    1  UNL1        0.1010
      3 N          61.0380   89.4321    9.7372 N.ar    1  UNL1       -0.2205
      4 C          60.2895   88.5463    8.7858 C.ar    1  UNL1        0.1795
      5 S          59.2973   88.5380    7.6610 S.2     1  UNL1       -0.0480
      6 C          59.0785   87.1131    7.2465 C.ar    1  UNL1        0.0573
      7 C          59.9356   86.2408    8.1152 C.ar    1  UNL1        0.0890
      8 N          60.6840   87.1266    9.0666 N.ar    1  UNL1       -0.2818
      9 C          62.8178   84.4283   12.8599 C.ar    1  UNL1        0.2724
     10 N          63.6503   83.5201   12.0042 N.ar    1  UNL1       -0.2094
     11 C          63.8248   83.8169   10.5442 C.ar    1  UNL1        0.1035
     12 C          63.1668   85.0218    9.9400 C.ar    1  UNL1        0.0414
     13 C          62.3343   85.9300   10.7957 C.ar    1  UNL1        0.1033
     14 N          62.1598   85.6332   12.2556 N.ar    1  UNL1       -0.2094
     15 C          62.4687   83.8347   15.7798 C.3     1  UNL1        0.1853
     16 S          62.6432   84.1315   14.3199 S.O2    1  UNL1        0.0441
     17 O          63.0974   85.5209   14.6566 O.2     1  UNL1       -0.1656
     18 O          62.1891   82.7421   13.9831 O.2     1  UNL1       -0.1656
     19 C          62.8102   89.0300   11.6975 C.ar    1  UNL1        0.0222
     20 C          63.2693   88.0715   12.7561 C.ar    1  UNL1        0.0017
     21 C          64.1844   88.5416   13.8476 C.ar    1  UNL1        0.0032
     22 C          64.6405   89.9703   13.8806 C.ar    1  UNL1        0.0369
     23 C          64.1815   90.9288   12.8220 C.ar    1  UNL1        0.1391
     24 C          63.2663   90.4586   11.7304 C.ar    1  UNL1        0.0385
     25 O          64.6376   92.3573   12.8550 O.3     1  UNL1       -0.4706
     26 C          66.1011   92.6791   12.7882 C.3     1  UNL1        0.2320
     27 C          66.7407   92.9923   11.4681 C.ar    1  UNL1        0.0212
     28 C          66.3729   94.2487   10.7357 C.ar    1  UNL1       -0.0007
     29 C          67.0125   94.5619    9.4155 C.ar    1  UNL1       -0.0002
     30 C          68.0199   93.6187    8.8277 C.ar    1  UNL1       -0.0000
     31 C          68.3877   92.3624    9.5600 C.ar    1  UNL1       -0.0002
     32 C          67.7481   92.0492   10.8802 C.ar    1  UNL1       -0.0007
@<TRIPOS>BOND
     1    15    16    1
     2    16    17    2
     3    16    18    2
     4    16     9    1
     5     9    10   ar
     6    10    11   ar
     7    11    12   ar
     8    12    13   ar
     9    13     1    1
    10     1     2   ar
    11     2    19    1
    12    19    20   ar
    13    20    21   ar
    14    21    22   ar
    15    22    23   ar
    16    23    25    1
    17    25    26    1
    18    26    27    1
    19    27    28   ar
    20    28    29   ar
    21    29    30   ar
    22    30    31   ar
    23    31    32   ar
    24    23    24   ar
    25     2     3   ar
    26     3     4   ar
    27     4     5   ar
    28     5     6   ar
    29     6     7   ar
    30     7     8   ar
    31    13    14   ar
    32    14     9   ar
    33     8     1   ar
    34    24    19   ar
    35     8     4   ar
    36    32    27   ar
@<TRIPOS>MOLECULE
*****
 32 36 0 0 0
SMALL
GASTEIGER

@<TRIPOS>ATOM
      1 C          61.6593   86.8543   10.1051 C.ar    1  UNL1        0.1012
      2 C          61.7914   88.2576   10.6184 C.ar    1  UNL1        0.1010
      3 N          60.8798   89.1339    9.8116 N.ar    1  UNL1       -0.2205
      4 C          60.1843   88.2723    8.7996 C.ar    1  UNL1        0.1795
      5 S          59.1912   88.2815    7.6756 S.2     1  UNL1       -0.0480
      6 C          59.0591   86.8782    7.1623 C.ar    1  UNL1        0.0573
      7 C          59.9707   86.0018    7.9692 C.ar    1  UNL1        0.0890
      8 N          60.6661   86.8634    8.9811 N.ar    1  UNL1       -0.2818
      9 C          63.0153   84.0746   12.5920 C.ar    1  UNL1        0.2724
     10 N          63.8570   83.2500   11.6638 N.ar    1  UNL1       -0.2094
     11 C          63.9662   83.6268   10.2160 C.ar    1  UNL1        0.1035
     12 C          63.2336   84.8283    9.6964 C.ar    1  UNL1        0.0414
     13 C          62.3919   85.6528   10.6247 C.ar    1  UNL1        0.1033
     14 N          62.2827   85.2760   12.0724 N.ar    1  UNL1       -0.2094
     15 C          62.7969   83.3208   15.4876 C.3     1  UNL1        0.1853
     16 S          62.9061   83.6977   14.0398 S.O2    1  UNL1        0.0441
     17 O          62.0731   84.9189   14.2948 O.2     1  UNL1       -0.1656
     18 O          63.7390   82.4766   13.7848 O.2     1  UNL1       -0.1656
     19 C          62.6791   88.7058   11.7413 C.ar    1  UNL1        0.0222
     20 C          63.2213   87.7019   12.7152 C.ar    1  UNL1        0.0017
     21 C          64.1090   88.1501   13.8381 C.ar    1  UNL1        0.0032
     22 C          64.4546   89.6022   13.9873 C.ar    1  UNL1        0.0369
     23 C          63.9124   90.6060   13.0134 C.ar    1  UNL1        0.1391
     24 C          63.0247   90.1577   11.8905 C.ar    1  UNL1        0.0385
     25 O          64.2580   92.0580   13.1626 O.3     1  UNL1       -0.4706
     26 C          65.6434   92.5359   12.8429 C.3     1  UNL1        0.2320
     27 C          66.7059   92.5178   13.9015 C.ar    1  UNL1        0.0212
     28 C          66.3596   92.8693   15.3180 C.ar    1  UNL1       -0.0007
     29 C          67.4222   92.8512   16.3766 C.ar    1  UNL1       -0.0002
     30 C          68.8312   92.4814   16.0186 C.ar    1  UNL1       -0.0000
     31 C          69.1775   92.1299   14.6021 C.ar    1  UNL1       -0.0002
     32 C          68.1149   92.1480   13.5436 C.ar    1  UNL1       -0.0007
@<TRIPOS>BOND
     1    15    16    1
     2    16    17    2
     3    16    18    2
     4    16     9    1
     5     9    10   ar
     6    10    11   ar
     7    11    12   ar
     8    12    13   ar
     9    13     1    1
    10     1     2   ar
    11     2    19    1
    12    19    20   ar
    13    20    21   ar
    14    21    22   ar
    15    22    23   ar
    16    23    25    1
    17    25    26    1
    18    26    27    1
    19    27    28   ar
    20    28    29   ar
    21    29    30   ar
    22    30    31   ar
    23    31    32   ar
    24    23    24   ar
    25     2     3   ar
    26     3     4   ar
    27     4     5   ar
    28     5     6   ar
    29     6     7   ar
    30     7     8   ar
    31    13    14   ar
    32    14     9   ar
    33     8     1   ar
    34    24    19   ar
    35     8     4   ar
    36    32    27   ar
@<TRIPOS>MOLECULE
*****
 32 36 0 0 0
SMALL
GASTEIGER

@<TRIPOS>ATOM
      1 C          63.4288   87.1541   13.0779 C.ar    1  UNL1        0.1012
      2 C          64.0845   87.5895   14.3549 C.ar    1  UNL1        0.1010
      3 N          64.5743   86.3630   15.0660 N.ar    1  UNL1       -0.2205
      4 C          64.2214   85.1696   14.2286 C.ar    1  UNL1        0.1795
      5 S          64.3061   83.6740   14.1505 S.2     1  UNL1       -0.0480
      6 C          63.6505   83.2387   12.8736 C.ar    1  UNL1        0.0573
      7 C          63.1606   84.4652   12.1624 C.ar    1  UNL1        0.0890
      8 N          63.5135   85.6586   12.9998 N.ar    1  UNL1       -0.2818
      9 C          61.2043   88.3979   10.0357 C.ar    1  UNL1        0.2724
     10 N          61.5397   89.8598   10.0183 N.ar    1  UNL1       -0.2094
     11 C          62.5048   90.4198   11.0208 C.ar    1  UNL1        0.1035
     12 C          63.1345   89.5180   12.0406 C.ar    1  UNL1        0.0414
     13 C          62.7991   88.0560   12.0580 C.ar    1  UNL1        0.1033
     14 N          61.8340   87.4960   11.0556 N.ar    1  UNL1       -0.2094
     15 C          59.2741   87.2778    8.0308 C.3     1  UNL1        0.1853
     16 S          60.2392   87.8378    9.0332 S.O2    1  UNL1        0.0441
     17 O          60.5275   86.4520    9.5299 O.2     1  UNL1       -0.1656
     18 O          59.9509   89.2235    8.5366 O.2     1  UNL1       -0.1656
     19 C          64.2254   89.0031   14.8362 C.ar    1  UNL1        0.0222
     20 C          63.4248   89.4785   16.0123 C.ar    1  UNL1        0.0017
     21 C          63.5658   90.8920   16.4935 C.ar    1  UNL1        0.0032
     22 C          64.5075   91.8305   15.7988 C.ar    1  UNL1        0.0369
     23 C          65.3082   91.3553   14.6228 C.ar    1  UNL1        0.1391
     24 C          65.1671   89.9416   14.1415 C.ar    1  UNL1        0.0385
     25 O          66.2498   92.2937   13.9281 O.3     1  UNL1       -0.4706
     26 C          65.7696   93.1171   12.7700 C.3     1  UNL1        0.2320
     27 C          66.5835   93.1888   11.5121 C.ar    1  UNL1        0.0212
     28 C          66.4882   94.3945   10.6248 C.ar    1  UNL1       -0.0007
     29 C          67.3021   94.4663    9.3668 C.ar    1  UNL1       -0.0002
     30 C          68.2114   93.3322    8.9962 C.ar    1  UNL1       -0.0000
     31 C          68.3066   92.1266    9.8834 C.ar    1  UNL1       -0.0002
     32 C          67.4927   92.0549   11.1414 C.ar    1  UNL1       -0.0007
@<TRIPOS>BOND
     1    15    16    1
     2    16    17    2
     3    16    18    2
     4    16     9    1
     5     9    10   ar
     6    10    11   ar
     7    11    12   ar
     8    12    13   ar
     9    13     1    1
    10     1     2   ar
    11     2    19    1
    12    19    20   ar
    13    20    21   ar
    14    21    22   ar
    15    22    23   ar
    16    23    25    1
    17    25    26    1
    18    26    27    1
    19    27    28   ar
    20    28    29   ar
    21    29    30   ar
    22    30    31   ar
    23    31    32   ar
    24    23    24   ar
    25     2     3   ar
    26     3     4   ar
    27     4     5   ar
    28     5     6   ar
    29     6     7   ar
    30     7     8   ar
    31    13    14   ar
    32    14     9   ar
    33     8     1   ar
    34    24    19   ar
    35     8     4   ar
    36    32    27   ar
@<TRIPOS>MOLECULE
*****
 32 36 0 0 0
SMALL
GASTEIGER

@<TRIPOS>ATOM
      1 C          62.6575   86.2197   12.2174 C.ar    1  UNL1        0.1012
      2 C          63.4194   87.2973   12.9306 C.ar    1  UNL1        0.1010
      3 N          64.1210   86.6724   14.0999 N.ar    1  UNL1       -0.2205
      4 C          63.7929   85.2088   14.1094 C.ar    1  UNL1        0.1795
      5 S          64.0237   83.9181   14.8380 S.2     1  UNL1       -0.0480
      6 C          63.2619   82.8406   14.1248 C.ar    1  UNL1        0.0573
      7 C          62.5602   83.4654   12.9555 C.ar    1  UNL1        0.0890
      8 N          62.8884   84.9290   12.9460 N.ar    1  UNL1       -0.2818
      9 C          61.3064   85.8412    8.5051 C.ar    1  UNL1        0.2724
     10 N          60.1242   86.7637    8.5382 N.ar    1  UNL1       -0.2094
     11 C          59.7863   87.5050    9.7978 C.ar    1  UNL1        0.1035
     12 C          60.6307   87.3236   11.0242 C.ar    1  UNL1        0.0414
     13 C          61.8131   86.4010   10.9910 C.ar    1  UNL1        0.1033
     14 N          62.1509   85.6598    9.7315 N.ar    1  UNL1       -0.2094
     15 C          61.9821   84.3587    5.9860 C.3     1  UNL1        0.1853
     16 S          61.6443   85.0999    7.2455 S.O2    1  UNL1        0.0441
     17 O          63.0727   84.9935    7.6913 O.2     1  UNL1       -0.1656
     18 O          60.2161   85.2064    6.7998 O.2     1  UNL1       -0.1656
     19 C          63.4705   88.7452   12.5425 C.ar    1  UNL1        0.0222
     20 C          62.8746   89.1946   11.2413 C.ar    1  UNL1        0.0017
     21 C          62.9258   90.6425   10.8533 C.ar    1  UNL1        0.0032
     22 C          63.5729   91.6413   11.7665 C.ar    1  UNL1        0.0369
     23 C          64.1687   91.1921   13.0677 C.ar    1  UNL1        0.1391
     24 C          64.1175   89.7440   13.4557 C.ar    1  UNL1        0.0385
     25 O          64.8157   92.1908   13.9808 O.3     1  UNL1       -0.4706
     26 C          66.2047   92.6791   13.6945 C.3     1  UNL1        0.2320
     27 C          66.5831   93.0907   12.3026 C.ar    1  UNL1        0.0212
     28 C          67.3405   92.1433   11.4200 C.ar    1  UNL1       -0.0007
     29 C          67.7188   92.5549   10.0281 C.ar    1  UNL1       -0.0002
     30 C          67.3397   93.9139    9.5187 C.ar    1  UNL1       -0.0000
     31 C          66.5823   94.8612   10.4012 C.ar    1  UNL1       -0.0002
     32 C          66.2040   94.4497   11.7931 C.ar    1  UNL1       -0.0007
@<TRIPOS>BOND
     1    15    16    1
     2    16    17    2
     3    16    18    2
     4    16     9    1
     5     9    10   ar
     6    10    11   ar
     7    11    12   ar
     8    12    13   ar
     9    13     1    1
    10     1     2   ar
    11     2    19    1
    12    19    20   ar
    13    20    21   ar
    14    21    22   ar
    15    22    23   ar
    16    23    25    1
    17    25    26    1
    18    26    27    1
    19    27    28   ar
    20    28    29   ar
    21    29    30   ar
    22    30    31   ar
    23    31    32   ar
    24    23    24   ar
    25     2     3   ar
    26     3     4   ar
    27     4     5   ar
    28     5     6   ar
    29     6     7   ar
    30     7     8   ar
    31    13    14   ar
    32    14     9   ar
    33     8     1   ar
    34    24    19   ar
    35     8     4   ar
    36    32    27   ar
