@<TRIPOS>MOLECULE
*****
 35 37 0 0 0
SMALL
GASTEIGER

@<TRIPOS>ATOM
      1 N          64.4894   90.8067   13.2355 N.am    1  UNL1       -0.2537
      2 C          65.3016   92.0460   13.0025 C.2     1  UNL1        0.2542
      3 O          65.0021   92.9291   11.8277 O.2     1  UNL1       -0.2695
      4 C          61.1541   89.7382   10.4099 C.ar    1  UNL1        0.1391
      5 C          62.4987   90.1266    9.8703 C.ar    1  UNL1        0.0382
      6 C          63.6105   90.4828   10.8121 C.ar    1  UNL1        0.0180
      7 C          63.3776   90.4505   12.2937 C.ar    1  UNL1        0.0544
      8 C          62.0330   90.0621   12.8332 C.ar    1  UNL1        0.0180
      9 C          60.9213   89.7060   11.8914 C.ar    1  UNL1        0.0382
     10 O          60.0423   89.3820    9.4680 O.3     1  UNL1       -0.4706
     11 C          59.9480   87.9928    8.9103 C.3     1  UNL1        0.2320
     12 C          62.7260   84.7788   10.3946 C.ar    1  UNL1       -0.0225
     13 C          62.7249   85.1577    8.9433 C.ar    1  UNL1       -0.0045
     14 C          61.7989   86.2290    8.4485 C.ar    1  UNL1       -0.0010
     15 C          60.8740   86.9214    9.4051 C.ar    1  UNL1        0.0211
     16 C          60.8751   86.5426   10.8564 C.ar    1  UNL1       -0.0010
     17 C          61.8011   85.4712   11.3512 C.ar    1  UNL1       -0.0045
     18 C          63.9994   83.6306   12.3466 C.3     1  UNL1        0.0047
     19 C          63.6520   83.7075   10.8894 C.3     1  UNL1        0.0224
     20 C          64.2306   82.7130    9.9271 C.3     1  UNL1        0.0047
     21 C          66.4134   92.4022   13.9444 C.ar    1  UNL1        0.0756
     22 C          66.1101   92.7077   15.3813 C.ar    1  UNL1        0.0076
     23 C          67.2219   93.0639   16.3232 C.ar    1  UNL1        0.0208
     24 C          68.6369   93.1146   15.8282 C.ar    1  UNL1        0.0988
     25 N          68.9402   92.8091   14.3913 N.ar    1  UNL1       -0.2397
     26 C          67.8284   92.4529   13.4494 C.ar    1  UNL1        0.1570
     27 C          68.1318   92.1474   12.0125 C.3     1  UNL1        0.4350
     28 F          68.4351   91.8418   10.5756 F       1  UNL1       -0.1644
     29 F          67.4103   93.3944   11.5950 F       1  UNL1       -0.1644
     30 F          68.8532   90.9003   12.4300 F       1  UNL1       -0.1644
     31 C          64.7889   89.9235   14.4105 C.3     1  UNL1        0.1153
     32 C          63.7917   89.7919   15.5232 C.3     1  UNL1        0.0873
     33 N          63.3736   91.0032   16.3029 N.3     1  UNL1       -0.3197
     34 H          64.1708   91.3604   16.8295 H       1  UNL1        0.1189
     35 H          62.6254   90.7506   16.9484 H       1  UNL1        0.1189
@<TRIPOS>BOND
     1    18    19    1
     2    19    20    1
     3    19    12    1
     4    12    13   ar
     5    13    14   ar
     6    14    15   ar
     7    15    11    1
     8    11    10    1
     9    10     4    1
    10     4     5   ar
    11     5     6   ar
    12     6     7   ar
    13     7     1    1
    14     1    31    1
    15    31    32    1
    16    32    33    1
    17     1     2   am
    18     2     3    2
    19     2    21    1
    20    21    22   ar
    21    22    23   ar
    22    23    24   ar
    23    24    25   ar
    24    25    26   ar
    25    26    27    1
    26    27    28    1
    27    27    29    1
    28    27    30    1
    29     7     8   ar
    30     8     9   ar
    31    15    16   ar
    32    16    17   ar
    33    17    12   ar
    34     9     4   ar
    35    26    21   ar
    36    33    34    1
    37    33    35    1
@<TRIPOS>MOLECULE
*****
 35 37 0 0 0
SMALL
GASTEIGER

@<TRIPOS>ATOM
      1 N          61.6822   88.9555   11.5453 N.am    1  UNL1       -0.2537
      2 C          62.0455   88.7205   10.1091 C.2     1  UNL1        0.2542
      3 O          63.4084   89.0976    9.6089 O.2     1  UNL1       -0.2695
      4 C          64.6809   90.7921   14.3533 C.ar    1  UNL1        0.1391
      5 C          63.8949   91.6646   13.4200 C.ar    1  UNL1        0.0382
      6 C          62.8954   91.0524   12.4840 C.ar    1  UNL1        0.0180
      7 C          62.6818   89.5677   12.4813 C.ar    1  UNL1        0.0544
      8 C          63.4678   88.6952   13.4145 C.ar    1  UNL1        0.0180
      9 C          64.4673   89.3074   14.3505 C.ar    1  UNL1        0.0382
     10 O          65.6805   91.4043   15.2893 O.3     1  UNL1       -0.4706
     11 C          66.4678   92.6078   14.8632 C.3     1  UNL1        0.2320
     12 C          67.5948   93.1444   10.5398 C.ar    1  UNL1       -0.0225
     13 C          66.6286   94.0923   11.1862 C.ar    1  UNL1       -0.0045
     14 C          66.2529   93.9135   12.6274 C.ar    1  UNL1       -0.0010
     15 C          66.8434   92.7867   13.4221 C.ar    1  UNL1        0.0211
     16 C          67.8096   91.8388   12.7757 C.ar    1  UNL1       -0.0010
     17 C          68.1853   92.0177   11.3346 C.ar    1  UNL1       -0.0045
     18 C          68.7789   92.2717    8.3983 C.3     1  UNL1        0.0047
     19 C          67.9704   93.3233    9.0987 C.3     1  UNL1        0.0224
     20 C          67.5376   94.5537    8.3579 C.3     1  UNL1        0.0047
     21 C          61.0460   88.1083    9.1731 C.ar    1  UNL1        0.0756
     22 C          60.0369   88.9760    8.4812 C.ar    1  UNL1        0.0076
     23 C          59.0374   88.3638    7.5452 C.ar    1  UNL1        0.0208
     24 C          59.0469   86.8839    7.3011 C.ar    1  UNL1        0.0988
     25 N          60.0559   86.0161    7.9930 N.ar    1  UNL1       -0.2397
     26 C          61.0555   86.6283    8.9290 C.ar    1  UNL1        0.1570
     27 C          62.0645   85.7605    9.6210 C.3     1  UNL1        0.4350
     28 F          63.0735   84.8927   10.3129 F       1  UNL1       -0.1644
     29 F          63.0039   85.9302    8.4640 F       1  UNL1       -0.1644
     30 F          61.1251   85.5908   10.7780 F       1  UNL1       -0.1644
     31 C          60.3193   88.5783   12.0456 C.3     1  UNL1        0.1153
     32 C          59.2795   89.6379   12.2605 C.3     1  UNL1        0.0873
     33 N          59.3561   90.9289   11.5007 N.3     1  UNL1       -0.3197
     34 H          60.1875   91.4445   11.7894 H       1  UNL1        0.1189
     35 H          58.5251   91.4875   11.6949 H       1  UNL1        0.1189
@<TRIPOS>BOND
     1    18    19    1
     2    19    20    1
     3    19    12    1
     4    12    13   ar
     5    13    14   ar
     6    14    15   ar
     7    15    11    1
     8    11    10    1
     9    10     4    1
    10     4     5   ar
    11     5     6   ar
    12     6     7   ar
    13     7     1    1
    14     1    31    1
    15    31    32    1
    16    32    33    1
    17     1     2   am
    18     2     3    2
    19     2    21    1
    20    21    22   ar
    21    22    23   ar
    22    23    24   ar
    23    24    25   ar
    24    25    26   ar
    25    26    27    1
    26    27    28    1
    27    27    29    1
    28    27    30    1
    29     7     8   ar
    30     8     9   ar
    31    15    16   ar
    32    16    17   ar
    33    17    12   ar
    34     9     4   ar
    35    26    21   ar
    36    33    34    1
    37    33    35    1
@<TRIPOS>MOLECULE
*****
 35 37 0 0 0
SMALL
GASTEIGER

@<TRIPOS>ATOM
      1 N          63.1459   85.9487   12.5571 N.am    1  UNL1       -0.2537
      2 C          64.0136   84.7798   12.9187 C.2     1  UNL1        0.2542
      3 O          65.1896   84.9722   13.8297 O.2     1  UNL1       -0.2695
      4 C          64.0711   90.0326   14.2050 C.ar    1  UNL1        0.1391
      5 C          63.4482   89.8951   12.8473 C.ar    1  UNL1        0.0382
      6 C          63.1398   88.5338   12.2980 C.ar    1  UNL1        0.0180
      7 C          63.4543   87.3100   13.1064 C.ar    1  UNL1        0.0544
      8 C          64.0773   87.4475   14.4639 C.ar    1  UNL1        0.0180
      9 C          64.3857   88.8088   15.0132 C.ar    1  UNL1        0.0382
     10 O          64.3796   91.3939   14.7543 O.3     1  UNL1       -0.4706
     11 C          65.7600   91.9639   14.6148 C.3     1  UNL1        0.2320
     12 C          67.4422   92.8110   10.5279 C.ar    1  UNL1       -0.0225
     13 C          66.0425   93.2320   10.8649 C.ar    1  UNL1       -0.0045
     14 C          65.4818   92.9497   12.2272 C.ar    1  UNL1       -0.0010
     15 C          66.3207   92.2462   13.2525 C.ar    1  UNL1        0.0211
     16 C          67.7204   91.8252   12.9155 C.ar    1  UNL1       -0.0010
     17 C          68.2811   92.1076   11.5532 C.ar    1  UNL1       -0.0045
     18 C          67.6637   94.3761    8.4660 C.3     1  UNL1        0.0047
     19 C          68.0029   93.0934    9.1656 C.3     1  UNL1        0.0224
     20 C          68.9028   92.0930    8.5028 C.3     1  UNL1        0.0047
     21 C          63.7051   83.4185   12.3694 C.ar    1  UNL1        0.0756
     22 C          64.0515   83.0871   10.9481 C.ar    1  UNL1        0.0076
     23 C          63.7431   81.7258   10.3988 C.ar    1  UNL1        0.0208
     24 C          63.0883   80.6958   11.2708 C.ar    1  UNL1        0.0988
     25 N          62.7420   81.0272   12.6922 N.ar    1  UNL1       -0.2397
     26 C          63.0504   82.3885   13.2415 C.ar    1  UNL1        0.1570
     27 C          62.7041   82.7198   14.6629 C.3     1  UNL1        0.4350
     28 F          62.3578   83.0511   16.0842 F       1  UNL1       -0.1644
     29 F          61.2793   82.9595   14.2599 F       1  UNL1       -0.1644
     30 F          64.1289   82.4802   15.0659 F       1  UNL1       -0.1644
     31 C          61.9698   85.7563   11.6460 C.3     1  UNL1        0.1153
     32 C          62.1085   86.0214   10.1762 C.3     1  UNL1        0.0873
     33 N          60.8846   86.1526    9.3190 N.3     1  UNL1       -0.3197
     34 H          60.3954   85.2582    9.2857 H       1  UNL1        0.1189
     35 H          61.1583   86.4258    8.3751 H       1  UNL1        0.1189
@<TRIPOS>BOND
     1    18    19    1
     2    19    20    1
     3    19    12    1
     4    12    13   ar
     5    13    14   ar
     6    14    15   ar
     7    15    11    1
     8    11    10    1
     9    10     4    1
    10     4     5   ar
    11     5     6   ar
    12     6     7   ar
    13     7     1    1
    14     1    31    1
    15    31    32    1
    16    32    33    1
    17     1     2   am
    18     2     3    2
    19     2    21    1
    20    21    22   ar
    21    22    23   ar
    22    23    24   ar
    23    24    25   ar
    24    25    26   ar
    25    26    27    1
    26    27    28    1
    27    27    29    1
    28    27    30    1
    29     7     8   ar
    30     8     9   ar
    31    15    16   ar
    32    16    17   ar
    33    17    12   ar
    34     9     4   ar
    35    26    21   ar
    36    33    34    1
    37    33    35    1
@<TRIPOS>MOLECULE
*****
 35 37 0 0 0
SMALL
GASTEIGER

@<TRIPOS>ATOM
      1 N          63.5978   85.2354   14.3669 N.am    1  UNL1       -0.2537
      2 C          62.6230   84.6507   13.3882 C.2     1  UNL1        0.2542
      3 O          61.7441   85.5538   12.5747 O.2     1  UNL1       -0.2695
      4 C          63.8853   89.6987   14.8626 C.ar    1  UNL1        0.1391
      5 C          63.6751   88.8229   16.0621 C.ar    1  UNL1        0.0382
      6 C          63.5792   87.3351   15.8969 C.ar    1  UNL1        0.0180
      7 C          63.6936   86.7231   14.5321 C.ar    1  UNL1        0.0544
      8 C          63.9039   87.5989   13.3327 C.ar    1  UNL1        0.0180
      9 C          63.9998   89.0867   13.4979 C.ar    1  UNL1        0.0382
     10 O          63.9812   91.1865   15.0278 O.3     1  UNL1       -0.4706
     11 C          65.3160   91.8658   14.9457 C.3     1  UNL1        0.2320
     12 C          67.1803   92.6864   10.9331 C.ar    1  UNL1       -0.0225
     13 C          68.0423   92.2813   12.0918 C.ar    1  UNL1       -0.0045
     14 C          67.4209   92.0077   13.4294 C.ar    1  UNL1       -0.0010
     15 C          65.9374   92.1393   13.6082 C.ar    1  UNL1        0.0211
     16 C          65.0754   92.5445   12.4495 C.ar    1  UNL1       -0.0010
     17 C          65.6968   92.8181   11.1119 C.ar    1  UNL1       -0.0045
     18 C          68.6576   91.9178    8.9390 C.3     1  UNL1        0.0047
     19 C          67.8017   92.9600    9.5956 C.3     1  UNL1        0.0224
     20 C          67.5671   94.2757    8.9146 C.3     1  UNL1        0.0047
     21 C          62.5271   83.1629   13.2230 C.ar    1  UNL1        0.0756
     22 C          61.8999   82.3276   14.2995 C.ar    1  UNL1        0.0076
     23 C          61.8040   80.8398   14.1343 C.ar    1  UNL1        0.0208
     24 C          62.3354   80.1873   12.8926 C.ar    1  UNL1        0.0988
     25 N          62.9627   81.0226   11.8162 N.ar    1  UNL1       -0.2397
     26 C          63.0586   82.5104   11.9814 C.ar    1  UNL1        0.1570
     27 C          63.6859   83.3457   10.9048 C.3     1  UNL1        0.4350
     28 F          64.3131   84.1809    9.8283 F       1  UNL1       -0.1644
     29 F          65.0456   83.0381   11.4584 F       1  UNL1       -0.1644
     30 F          62.3262   83.6532   10.3512 F       1  UNL1       -0.1644
     31 C          64.4768   84.3322   15.1805 C.3     1  UNL1        0.1153
     32 C          65.8344   83.9489   14.6709 C.3     1  UNL1        0.0873
     33 N          66.9148   84.9838   14.5631 N.3     1  UNL1       -0.3197
     34 H          66.6561   85.6732   13.8574 H       1  UNL1        0.1189
     35 H          67.7904   84.5346   14.2947 H       1  UNL1        0.1189
@<TRIPOS>BOND
     1    18    19    1
     2    19    20    1
     3    19    12    1
     4    12    13   ar
     5    13    14   ar
     6    14    15   ar
     7    15    11    1
     8    11    10    1
     9    10     4    1
    10     4     5   ar
    11     5     6   ar
    12     6     7   ar
    13     7     1    1
    14     1    31    1
    15    31    32    1
    16    32    33    1
    17     1     2   am
    18     2     3    2
    19     2    21    1
    20    21    22   ar
    21    22    23   ar
    22    23    24   ar
    23    24    25   ar
    24    25    26   ar
    25    26    27    1
    26    27    28    1
    27    27    29    1
    28    27    30    1
    29     7     8   ar
    30     8     9   ar
    31    15    16   ar
    32    16    17   ar
    33    17    12   ar
    34     9     4   ar
    35    26    21   ar
    36    33    34    1
    37    33    35    1
@<TRIPOS>MOLECULE
*****
 35 37 0 0 0
SMALL
GASTEIGER

@<TRIPOS>ATOM
      1 N          64.2523   90.4909   13.7963 N.am    1  UNL1       -0.2537
      2 C          65.5981   91.1534   13.7959 C.2     1  UNL1        0.2542
      3 O          66.7299   90.5527   14.5756 O.2     1  UNL1       -0.2695
      4 C          63.6106   86.7014   16.1368 C.ar    1  UNL1        0.1391
      5 C          64.2682   86.6486   14.7896 C.ar    1  UNL1        0.0382
      6 C          64.4821   87.9118   14.0095 C.ar    1  UNL1        0.0180
      7 C          64.0384   89.2278   14.5765 C.ar    1  UNL1        0.0544
      8 C          63.3808   89.2805   15.9236 C.ar    1  UNL1        0.0180
      9 C          63.1669   88.0173   16.7037 C.ar    1  UNL1        0.0382
     10 O          63.3967   85.4382   16.9169 O.3     1  UNL1       -0.4706
     11 C          62.5472   84.3404   16.3485 C.3     1  UNL1        0.2320
     12 C          63.3682   82.7730   12.2110 C.ar    1  UNL1       -0.0225
     13 C          63.9313   82.0642   13.4070 C.ar    1  UNL1       -0.0045
     14 C          63.6577   82.5867   14.7862 C.ar    1  UNL1       -0.0010
     15 C          62.8208   83.8179   14.9694 C.ar    1  UNL1        0.0211
     16 C          62.2577   84.5267   13.7734 C.ar    1  UNL1       -0.0010
     17 C          62.5313   84.0043   12.3942 C.ar    1  UNL1       -0.0045
     18 C          63.2379   80.8532   10.4654 C.3     1  UNL1        0.0047
     19 C          63.6418   82.2505   10.8319 C.3     1  UNL1        0.0224
     20 C          64.3194   83.1253    9.8192 C.3     1  UNL1        0.0047
     21 C          65.8120   92.4166   13.0158 C.ar    1  UNL1        0.0756
     22 C          65.3455   92.5075   11.5931 C.ar    1  UNL1        0.0076
     23 C          65.5594   93.7707   10.8129 C.ar    1  UNL1        0.0208
     24 C          66.2398   94.9429   11.4555 C.ar    1  UNL1        0.0988
     25 N          66.7062   94.8520   12.8782 N.ar    1  UNL1       -0.2397
     26 C          66.4923   93.5888   13.6583 C.ar    1  UNL1        0.1570
     27 C          66.9588   93.4979   15.0811 C.3     1  UNL1        0.4350
     28 F          67.4253   93.4071   16.5038 F       1  UNL1       -0.1644
     29 F          65.5332   93.4582   15.5460 F       1  UNL1       -0.1644
     30 F          68.3843   93.5377   14.6162 F       1  UNL1       -0.1644
     31 C          63.1204   91.0916   13.0166 C.3     1  UNL1        0.1153
     32 C          62.3249   90.2398   12.0723 C.3     1  UNL1        0.0873
     33 N          60.9862   89.7070   12.4893 N.3     1  UNL1       -0.3197
     34 H          61.1075   89.0448   13.2556 H       1  UNL1        0.1189
     35 H          60.5467   89.2354   11.6988 H       1  UNL1        0.1189
@<TRIPOS>BOND
     1    18    19    1
     2    19    20    1
     3    19    12    1
     4    12    13   ar
     5    13    14   ar
     6    14    15   ar
     7    15    11    1
     8    11    10    1
     9    10     4    1
    10     4     5   ar
    11     5     6   ar
    12     6     7   ar
    13     7     1    1
    14     1    31    1
    15    31    32    1
    16    32    33    1
    17     1     2   am
    18     2     3    2
    19     2    21    1
    20    21    22   ar
    21    22    23   ar
    22    23    24   ar
    23    24    25   ar
    24    25    26   ar
    25    26    27    1
    26    27    28    1
    27    27    29    1
    28    27    30    1
    29     7     8   ar
    30     8     9   ar
    31    15    16   ar
    32    16    17   ar
    33    17    12   ar
    34     9     4   ar
    35    26    21   ar
    36    33    34    1
    37    33    35    1
@<TRIPOS>MOLECULE
*****
 35 37 0 0 0
SMALL
GASTEIGER

@<TRIPOS>ATOM
      1 N          62.6978   87.7758   11.6023 N.am    1  UNL1       -0.2537
      2 C          62.6181   88.1257   10.1459 C.2     1  UNL1        0.2542
      3 O          63.1089   89.4598    9.6671 O.2     1  UNL1       -0.2695
      4 C          64.4093   90.7285   14.5353 C.ar    1  UNL1        0.1391
      5 C          63.6297   91.2150   13.3497 C.ar    1  UNL1        0.0382
      6 C          63.0592   90.2308   12.3720 C.ar    1  UNL1        0.0180
      7 C          63.2683   88.7600   12.5800 C.ar    1  UNL1        0.0544
      8 C          64.0478   88.2735   13.7655 C.ar    1  UNL1        0.0180
      9 C          64.6183   89.2578   14.7432 C.ar    1  UNL1        0.0382
     10 O          64.9798   91.7127   15.5130 O.3     1  UNL1       -0.4706
     11 C          66.2470   92.4457   15.1863 C.3     1  UNL1        0.2320
     12 C          67.4626   93.0356   10.8940 C.ar    1  UNL1       -0.0225
     13 C          66.4574   93.9549   11.5219 C.ar    1  UNL1       -0.0045
     14 C          66.0522   93.7583   12.9527 C.ar    1  UNL1       -0.0010
     15 C          66.6522   92.6423   13.7555 C.ar    1  UNL1        0.0211
     16 C          67.6574   91.7230   13.1276 C.ar    1  UNL1       -0.0010
     17 C          68.0626   91.9196   11.6968 C.ar    1  UNL1       -0.0045
     18 C          67.4311   94.4610    8.7221 C.3     1  UNL1        0.0047
     19 C          67.8678   93.2322    9.4632 C.3     1  UNL1        0.0224
     20 C          68.7097   92.2000    8.7735 C.3     1  UNL1        0.0047
     21 C          62.0477   87.1414    9.1682 C.ar    1  UNL1        0.0756
     22 C          62.8645   85.9634    8.7268 C.ar    1  UNL1        0.0076
     23 C          62.2940   84.9791    7.7492 C.ar    1  UNL1        0.0208
     24 C          60.9067   85.1730    7.2129 C.ar    1  UNL1        0.0988
     25 N          60.0898   86.3510    7.6542 N.ar    1  UNL1       -0.2397
     26 C          60.6603   87.3353    8.6319 C.ar    1  UNL1        0.1570
     27 C          59.8434   88.5134    9.0733 C.3     1  UNL1        0.4350
     28 F          59.0265   89.6915    9.5146 F       1  UNL1       -0.1644
     29 F          59.4990   87.7979   10.3459 F       1  UNL1       -0.1644
     30 F          60.1877   89.2289    7.8007 F       1  UNL1       -0.1644
     31 C          62.2070   86.4416   12.0811 C.3     1  UNL1        0.1153
     32 C          63.1801   85.3243   12.3149 C.3     1  UNL1        0.0873
     33 N          63.1561   84.5675   13.6098 N.3     1  UNL1       -0.3197
     34 H          63.4243   85.1897   14.3722 H       1  UNL1        0.1189
     35 H          63.8122   83.7881   13.5602 H       1  UNL1        0.1189
@<TRIPOS>BOND
     1    18    19    1
     2    19    20    1
     3    19    12    1
     4    12    13   ar
     5    13    14   ar
     6    14    15   ar
     7    15    11    1
     8    11    10    1
     9    10     4    1
    10     4     5   ar
    11     5     6   ar
    12     6     7   ar
    13     7     1    1
    14     1    31    1
    15    31    32    1
    16    32    33    1
    17     1     2   am
    18     2     3    2
    19     2    21    1
    20    21    22   ar
    21    22    23   ar
    22    23    24   ar
    23    24    25   ar
    24    25    26   ar
    25    26    27    1
    26    27    28    1
    27    27    29    1
    28    27    30    1
    29     7     8   ar
    30     8     9   ar
    31    15    16   ar
    32    16    17   ar
    33    17    12   ar
    34     9     4   ar
    35    26    21   ar
    36    33    34    1
    37    33    35    1
@<TRIPOS>MOLECULE
*****
 35 37 0 0 0
SMALL
GASTEIGER

@<TRIPOS>ATOM
      1 N          64.7808   92.0446   12.2092 N.am    1  UNL1       -0.2537
      2 C          66.0753   92.7845   12.3724 C.2     1  UNL1        0.2542
      3 O          67.0155   92.4154   13.4813 O.2     1  UNL1       -0.2695
      4 C          63.7175   88.7177   15.0467 C.ar    1  UNL1        0.1391
      5 C          63.7925   88.4508   13.5725 C.ar    1  UNL1        0.0382
      6 C          64.1470   89.5598   12.6266 C.ar    1  UNL1        0.0180
      7 C          64.4264   90.9356   13.1550 C.ar    1  UNL1        0.0544
      8 C          64.3514   91.2024   14.6292 C.ar    1  UNL1        0.0180
      9 C          63.9969   90.0935   15.5750 C.ar    1  UNL1        0.0382
     10 O          63.3631   87.6088   15.9925 O.3     1  UNL1       -0.4706
     11 C          64.2178   86.3780   16.0592 C.3     1  UNL1        0.2320
     12 C          63.1532   82.7633   13.5994 C.ar    1  UNL1       -0.0225
     13 C          64.3559   83.5855   13.2426 C.ar    1  UNL1       -0.0045
     14 C          64.7108   84.7904   14.0625 C.ar    1  UNL1       -0.0010
     15 C          63.8630   85.1731   15.2393 C.ar    1  UNL1        0.0211
     16 C          62.6603   84.3508   15.5961 C.ar    1  UNL1       -0.0010
     17 C          62.3054   83.1459   14.7761 C.ar    1  UNL1       -0.0045
     18 C          63.0623   81.5517   11.3029 C.3     1  UNL1        0.0047
     19 C          62.7984   81.5584   12.7795 C.3     1  UNL1        0.0224
     20 C          62.1796   80.3601   13.4361 C.3     1  UNL1        0.0047
     21 C          66.4298   93.8934   11.4265 C.ar    1  UNL1        0.0756
     22 C          65.9385   95.2866   11.6865 C.ar    1  UNL1        0.0076
     23 C          66.2929   96.3956   10.7406 C.ar    1  UNL1        0.0208
     24 C          67.1386   96.1113    9.5348 C.ar    1  UNL1        0.0988
     25 N          67.6299   94.7181    9.2749 N.ar    1  UNL1       -0.2397
     26 C          67.2754   93.6092   10.2207 C.ar    1  UNL1        0.1570
     27 C          67.7668   92.2159    9.9607 C.3     1  UNL1        0.4350
     28 F          68.2580   90.8227    9.7007 F       1  UNL1       -0.1644
     29 F          69.1631   92.6446   10.3019 F       1  UNL1       -0.1644
     30 F          66.3704   91.7872    9.6195 F       1  UNL1       -0.1644
     31 C          63.8406   92.4136   11.1001 C.3     1  UNL1        0.1153
     32 C          63.3323   91.3567   10.1650 C.3     1  UNL1        0.0873
     33 N          61.8935   90.9364   10.2191 N.3     1  UNL1       -0.3197
     34 H          61.7061   90.4791   11.1114 H       1  UNL1        0.1189
     35 H          61.7002   90.2866    9.4569 H       1  UNL1        0.1189
@<TRIPOS>BOND
     1    18    19    1
     2    19    20    1
     3    19    12    1
     4    12    13   ar
     5    13    14   ar
     6    14    15   ar
     7    15    11    1
     8    11    10    1
     9    10     4    1
    10     4     5   ar
    11     5     6   ar
    12     6     7   ar
    13     7     1    1
    14     1    31    1
    15    31    32    1
    16    32    33    1
    17     1     2   am
    18     2     3    2
    19     2    21    1
    20    21    22   ar
    21    22    23   ar
    22    23    24   ar
    23    24    25   ar
    24    25    26   ar
    25    26    27    1
    26    27    28    1
    27    27    29    1
    28    27    30    1
    29     7     8   ar
    30     8     9   ar
    31    15    16   ar
    32    16    17   ar
    33    17    12   ar
    34     9     4   ar
    35    26    21   ar
    36    33    34    1
    37    33    35    1
@<TRIPOS>MOLECULE
*****
 35 37 0 0 0
SMALL
GASTEIGER

@<TRIPOS>ATOM
      1 N          63.3484   85.4276   13.2567 N.am    1  UNL1       -0.2537
      2 C          62.5185   84.4590   12.4674 C.2     1  UNL1        0.2542
      3 O          61.6790   84.9481   11.3246 O.2     1  UNL1       -0.2695
      4 C          63.3200   89.8007   12.1959 C.ar    1  UNL1        0.1391
      5 C          63.9759   89.3408   13.4641 C.ar    1  UNL1        0.0382
      6 C          63.9854   87.8831   13.8177 C.ar    1  UNL1        0.0180
      7 C          63.3389   86.8853   12.9031 C.ar    1  UNL1        0.0544
      8 C          62.6830   87.3452   11.6349 C.ar    1  UNL1        0.0180
      9 C          62.6736   88.8029   11.2814 C.ar    1  UNL1        0.0382
     10 O          63.3105   91.2584   11.8423 O.3     1  UNL1       -0.4706
     11 C          64.5961   91.9598   11.5178 C.3     1  UNL1        0.2320
     12 C          67.6441   92.6802   14.7489 C.ar    1  UNL1       -0.0225
     13 C          66.1805   92.7583   15.0677 C.ar    1  UNL1       -0.0045
     14 C          65.1645   92.5182   13.9906 C.ar    1  UNL1       -0.0010
     15 C          65.6121   92.1999   12.5948 C.ar    1  UNL1        0.0211
     16 C          67.0757   92.1218   12.2761 C.ar    1  UNL1       -0.0010
     17 C          68.0917   92.3620   13.3531 C.ar    1  UNL1       -0.0045
     18 C          69.0853   91.7940   16.7206 C.3     1  UNL1        0.0047
     19 C          68.6601   92.9204   15.8260 C.3     1  UNL1        0.0224
     20 C          69.2510   94.2870   16.0084 C.3     1  UNL1        0.0047
     21 C          62.5279   83.0013   12.8210 C.ar    1  UNL1        0.0756
     22 C          61.7596   82.5138   14.0134 C.ar    1  UNL1        0.0076
     23 C          61.7690   81.0561   14.3670 C.ar    1  UNL1        0.0208
     24 C          62.5469   80.0859   13.5282 C.ar    1  UNL1        0.0988
     25 N          63.3153   80.5734   12.3358 N.ar    1  UNL1       -0.2397
     26 C          63.3058   82.0311   11.9822 C.ar    1  UNL1        0.1570
     27 C          64.0742   82.5186   10.7897 C.3     1  UNL1        0.4350
     28 F          64.8426   83.0060    9.5973 F       1  UNL1       -0.1644
     29 F          65.0650   83.1823   11.6995 F       1  UNL1       -0.1644
     30 F          63.0834   81.8549    9.8800 F       1  UNL1       -0.1644
     31 C          64.1879   84.9385   14.3996 C.3     1  UNL1        0.1153
     32 C          63.7325   85.1570   15.8120 C.3     1  UNL1        0.0873
     33 N          62.2725   85.3260   16.1116 N.3     1  UNL1       -0.3197
     34 H          61.9363   86.1909   15.6881 H       1  UNL1        0.1189
     35 H          62.1350   85.3660   17.1215 H       1  UNL1        0.1189
@<TRIPOS>BOND
     1    18    19    1
     2    19    20    1
     3    19    12    1
     4    12    13   ar
     5    13    14   ar
     6    14    15   ar
     7    15    11    1
     8    11    10    1
     9    10     4    1
    10     4     5   ar
    11     5     6   ar
    12     6     7   ar
    13     7     1    1
    14     1    31    1
    15    31    32    1
    16    32    33    1
    17     1     2   am
    18     2     3    2
    19     2    21    1
    20    21    22   ar
    21    22    23   ar
    22    23    24   ar
    23    24    25   ar
    24    25    26   ar
    25    26    27    1
    26    27    28    1
    27    27    29    1
    28    27    30    1
    29     7     8   ar
    30     8     9   ar
    31    15    16   ar
    32    16    17   ar
    33    17    12   ar
    34     9     4   ar
    35    26    21   ar
    36    33    34    1
    37    33    35    1
@<TRIPOS>MOLECULE
*****
 35 37 0 0 0
SMALL
GASTEIGER

@<TRIPOS>ATOM
      1 N          64.7768   91.7206   12.5078 N.am    1  UNL1       -0.2537
      2 C          65.3788   91.0864   13.7266 C.2     1  UNL1        0.2542
      3 O          64.8370   89.7854   14.2402 O.2     1  UNL1       -0.2695
      4 C          61.3454   89.7201   10.3926 C.ar    1  UNL1        0.1391
      5 C          62.3855   90.4581    9.6029 C.ar    1  UNL1        0.0382
      6 C          63.5293   91.1249   10.3080 C.ar    1  UNL1        0.0180
      7 C          63.6330   91.0538   11.8028 C.ar    1  UNL1        0.0544
      8 C          62.5929   90.3158   12.5924 C.ar    1  UNL1        0.0180
      9 C          61.4491   89.6490   11.8873 C.ar    1  UNL1        0.0382
     10 O          60.2016   89.0533    9.6876 O.3     1  UNL1       -0.4706
     11 C          60.4331   87.7922    8.9093 C.3     1  UNL1        0.2320
     12 C          63.0044   84.5253   10.6314 C.ar    1  UNL1       -0.0225
     13 C          63.1115   84.8759    9.1769 C.ar    1  UNL1       -0.0045
     14 C          62.2544   85.9649    8.6029 C.ar    1  UNL1       -0.0010
     15 C          61.2902   86.7032    9.4833 C.ar    1  UNL1        0.0211
     16 C          61.1831   86.3525   10.9378 C.ar    1  UNL1       -0.0010
     17 C          62.0402   85.2636   11.5118 C.ar    1  UNL1       -0.0045
     18 C          64.3023   82.2937   10.3394 C.3     1  UNL1        0.0047
     19 C          63.8615   83.4363   11.2054 C.3     1  UNL1        0.0224
     20 C          64.2778   83.4900   12.6454 C.3     1  UNL1        0.0047
     21 C          66.5226   91.7532   14.4316 C.ar    1  UNL1        0.0756
     22 C          67.8837   91.7715   13.8018 C.ar    1  UNL1        0.0076
     23 C          69.0275   92.4383   14.5068 C.ar    1  UNL1        0.0208
     24 C          68.8101   93.0868   15.8418 C.ar    1  UNL1        0.0988
     25 N          67.4490   93.0685   16.4717 N.ar    1  UNL1       -0.2397
     26 C          66.3052   92.4017   15.7666 C.ar    1  UNL1        0.1570
     27 C          64.9439   92.3834   16.3965 C.3     1  UNL1        0.4350
     28 F          63.5827   92.3651   17.0264 F       1  UNL1       -0.1644
     29 F          65.5694   92.1631   17.7419 F       1  UNL1       -0.1644
     30 F          64.3184   92.6037   15.0512 F       1  UNL1       -0.1644
     31 C          65.3185   93.0216   11.9941 C.3     1  UNL1        0.1153
     32 C          66.3434   93.0271   10.8989 C.3     1  UNL1        0.0873
     33 N          67.2018   94.2377   10.6810 N.3     1  UNL1       -0.3197
     34 H          66.6193   95.0166   10.3736 H       1  UNL1        0.1189
     35 H          67.9017   94.0343    9.9674 H       1  UNL1        0.1189
@<TRIPOS>BOND
     1    18    19    1
     2    19    20    1
     3    19    12    1
     4    12    13   ar
     5    13    14   ar
     6    14    15   ar
     7    15    11    1
     8    11    10    1
     9    10     4    1
    10     4     5   ar
    11     5     6   ar
    12     6     7   ar
    13     7     1    1
    14     1    31    1
    15    31    32    1
    16    32    33    1
    17     1     2   am
    18     2     3    2
    19     2    21    1
    20    21    22   ar
    21    22    23   ar
    22    23    24   ar
    23    24    25   ar
    24    25    26   ar
    25    26    27    1
    26    27    28    1
    27    27    29    1
    28    27    30    1
    29     7     8   ar
    30     8     9   ar
    31    15    16   ar
    32    16    17   ar
    33    17    12   ar
    34     9     4   ar
    35    26    21   ar
    36    33    34    1
    37    33    35    1
