@<TRIPOS>MOLECULE
*****
 32 35 0 0 0
SMALL
GASTEIGER

@<TRIPOS>ATOM
      1 C          62.3237   81.4261   13.9669 C.3     1  UNL1        0.0310
      2 C          62.6569   82.8608   14.2506 C.ar    1  UNL1       -0.0182
      3 C          62.4536   83.4198   15.6277 C.ar    1  UNL1       -0.0073
      4 C          62.7867   84.8546   15.9114 C.ar    1  UNL1       -0.0070
      5 C          63.3231   85.7303   14.8181 C.ar    1  UNL1        0.0513
      6 C          63.5264   85.1714   13.4411 C.ar    1  UNL1        0.0182
      7 C          63.1932   83.7366   13.1573 C.ar    1  UNL1        0.0687
      8 N          63.5602   87.0957   15.3922 N.am    1  UNL1       -0.2430
      9 C          64.0935   88.2843   14.6487 C.2     1  UNL1        0.3115
     10 O          64.4419   88.1649   13.1946 O.2     1  UNL1       -0.2519
     11 N          64.2783   89.5923   15.3592 N.am    1  UNL1       -0.2666
     12 C          63.1703   87.0638   16.8403 C.3     1  UNL1        0.1045
     13 C          62.6923   85.6787   17.1612 C.3     1  UNL1        0.0495
     14 H          64.0496   89.6707   16.3136 H       1  UNL1        0.1565
     15 C          64.8116   90.7810   14.6158 C.ar    1  UNL1        0.0711
     16 C          65.9889   91.5373   15.1562 C.ar    1  UNL1        0.0211
     17 C          66.5221   92.7259   14.4127 C.ar    1  UNL1        0.0594
     18 C          65.8781   93.1582   13.1288 C.ar    1  UNL1        0.2298
     19 N          64.7008   92.4020   12.5884 N.ar    1  UNL1       -0.2085
     20 C          64.1676   91.2133   13.3319 C.ar    1  UNL1        0.1167
     21 O          66.4113   94.3469   12.3853 O.3     1  UNL1       -0.4349
     22 C          66.9758   94.1773   11.0059 C.ar    1  UNL1        0.1606
     23 C          67.4840   92.8373   10.5630 C.ar    1  UNL1        0.0404
     24 C          68.0484   92.6677    9.1837 C.ar    1  UNL1        0.0238
     25 C          68.1047   93.8381    8.2472 C.ar    1  UNL1        0.0987
     26 N          67.5966   95.1781    8.6901 N.ar    1  UNL1       -0.2451
     27 C          67.0321   95.3477   10.0694 C.ar    1  UNL1        0.0938
     28 C          66.5240   96.6877   10.5124 C.3     1  UNL1        0.0554
     29 C          63.3965   83.1776   11.7803 C.3     1  UNL1        0.4183
     30 F          63.5997   82.6187   10.4033 F       1  UNL1       -0.1659
     31 F          64.6954   82.5691   12.2191 F       1  UNL1       -0.1659
     32 F          62.0976   83.7862   11.3416 F       1  UNL1       -0.1659
@<TRIPOS>BOND
     1     1     2    1
     2     2     3   ar
     3     3     4   ar
     4     4     5   ar
     5     5     6   ar
     6     6     7   ar
     7     7    29    1
     8    29    30    1
     9    29    31    1
    10    29    32    1
    11     5     8    1
    12     8     9   am
    13     9    10    2
    14     9    11   am
    15    11    15    1
    16    15    16   ar
    17    16    17   ar
    18    17    18   ar
    19    18    21    1
    20    21    22    1
    21    22    23   ar
    22    23    24   ar
    23    24    25   ar
    24    25    26   ar
    25    26    27   ar
    26    27    28    1
    27    18    19   ar
    28    19    20   ar
    29     8    12    1
    30    12    13    1
    31     7     2   ar
    32    20    15   ar
    33    13     4    1
    34    27    22   ar
    35    11    14    1
