@<TRIPOS>MOLECULE
*****
 28 32 0 0 0
SMALL
GASTEIGER

@<TRIPOS>ATOM
      1 O          64.9209   82.1019   11.3072 O.2     1  UNL1       -0.2443
      2 C          64.0276   83.1922   11.8202 C.ar    1  UNL1        0.3527
      3 N          63.8217   83.3608   13.2964 N.ar    1  UNL1       -0.1570
      4 C          62.9284   84.4512   13.8094 C.ar    1  UNL1        0.2303
      5 C          62.2410   85.3729   12.8462 C.ar    1  UNL1        0.0751
      6 C          62.4469   85.2043   11.3699 C.ar    1  UNL1        0.0682
      7 N          63.3401   84.1140   10.8570 N.ar    1  UNL1       -0.2794
      8 C          63.5460   83.9454    9.3808 C.3     1  UNL1        0.1152
      9 C          62.8586   84.8671    8.4175 C.3     1  UNL1        0.0510
     10 C          61.9653   85.9575    8.9305 C.ar    1  UNL1       -0.0182
     11 C          61.2779   86.8792    7.9673 C.ar    1  UNL1        0.0041
     12 C          60.3846   87.9695    8.4802 C.ar    1  UNL1        0.0413
     13 C          60.1787   88.1382    9.9564 C.ar    1  UNL1        0.0083
     14 C          60.8661   87.2164   10.9197 C.ar    1  UNL1        0.0017
     15 C          61.7594   86.1261   10.4067 C.ar    1  UNL1        0.0122
     16 C          59.6971   88.8913    7.5170 C.1     1  UNL1       -0.0644
     17 C          59.0097   89.8130    6.5538 C.1     1  UNL1       -0.0874
     18 C          58.3222   90.7348    5.5905 C.3     1  UNL1        0.0645
     19 C          57.0610   91.2710    4.9807 C.3     1  UNL1        0.0140
     20 C          58.3928   91.7952    4.5320 C.3     1  UNL1        0.0140
     21 O          62.7225   84.6198   15.2856 O.3     1  UNL1       -0.4574
     22 C          63.6680   85.4689   16.0825 C.3     1  UNL1        0.2390
     23 C          63.6623   86.9593   15.9130 C.3     1  UNL1        0.1882
     24 C          63.0668   87.8329   16.9772 C.3     1  UNL1        0.1755
     25 O          63.0611   89.3233   16.8076 O.3     1  UNL1       -0.3484
     26 C          63.6509   89.9401   15.5740 C.3     1  UNL1        0.1742
     27 C          64.2464   89.0665   14.5099 C.3     1  UNL1        0.1743
     28 O          64.2520   87.5761   14.6795 O.3     1  UNL1       -0.3472
@<TRIPOS>BOND
     1     1     2    2
     2     2     3   ar
     3     3     4   ar
     4     4    21    1
     5    21    22    1
     6    23    22    1
     7    23    24    1
     8    24    25    1
     9    25    26    1
    10    26    27    1
    11    27    28    1
    12     4     5   ar
    13     5     6   ar
    14     6     7   ar
    15     7     8    1
    16     8     9    1
    17     9    10    1
    18    10    11   ar
    19    11    12   ar
    20    12    16    1
    21    16    17    3
    22    17    18    1
    23    18    19    1
    24    19    20    1
    25    12    13   ar
    26    13    14   ar
    27    14    15   ar
    28     7     2   ar
    29    15    10   ar
    30    28    23    1
    31    15     6    1
    32    20    18    1
@<TRIPOS>MOLECULE
*****
 28 32 0 0 0
SMALL
GASTEIGER

@<TRIPOS>ATOM
      1 O          65.0555   86.8397   15.2582 O.2     1  UNL1       -0.2443
      2 C          64.0821   86.1574   14.3435 C.ar    1  UNL1        0.3527
      3 N          63.7503   84.7088   14.5472 N.ar    1  UNL1       -0.1570
      4 C          62.7768   84.0265   13.6324 C.ar    1  UNL1        0.2303
      5 C          62.1351   84.7928   12.5140 C.ar    1  UNL1        0.0751
      6 C          62.4668   86.2414   12.3103 C.ar    1  UNL1        0.0682
      7 N          63.4403   86.9237   13.2250 N.ar    1  UNL1       -0.2794
      8 C          63.7720   88.3723   13.0213 C.3     1  UNL1        0.1152
      9 C          63.1303   89.1386   11.9028 C.3     1  UNL1        0.0510
     10 C          62.1568   88.4563   10.9880 C.ar    1  UNL1       -0.0182
     11 C          61.5151   89.2225    9.8696 C.ar    1  UNL1        0.0041
     12 C          60.5416   88.5402    8.9548 C.ar    1  UNL1        0.0413
     13 C          60.2099   87.0916    9.1586 C.ar    1  UNL1        0.0083
     14 C          60.8516   86.3253   10.2770 C.ar    1  UNL1        0.0017
     15 C          61.8251   87.0077   11.1917 C.ar    1  UNL1        0.0122
     16 C          59.8999   89.3065    7.8363 C.1     1  UNL1       -0.0644
     17 C          59.2581   90.0727    6.7178 C.1     1  UNL1       -0.0874
     18 C          58.6163   90.8390    5.5993 C.3     1  UNL1        0.0645
     19 C          57.3892   91.2373    4.8341 C.3     1  UNL1        0.0140
     20 C          58.7320   91.7678    4.4272 C.3     1  UNL1        0.0140
     21 O          62.4450   82.5779   13.8362 O.3     1  UNL1       -0.4574
     22 C          63.4149   81.5184   13.4041 C.3     1  UNL1        0.2390
     23 C          63.1877   80.7708   12.1237 C.3     1  UNL1        0.1882
     24 C          63.3741   81.4646   10.8069 C.3     1  UNL1        0.1755
     25 O          63.1469   80.7169    9.5265 O.3     1  UNL1       -0.3484
     26 C          62.7333   79.2755    9.5629 C.3     1  UNL1        0.1742
     27 C          62.5469   78.5817   10.8797 C.3     1  UNL1        0.1743
     28 O          62.7741   79.3294   12.1601 O.3     1  UNL1       -0.3472
@<TRIPOS>BOND
     1     1     2    2
     2     2     3   ar
     3     3     4   ar
     4     4    21    1
     5    21    22    1
     6    23    22    1
     7    23    24    1
     8    24    25    1
     9    25    26    1
    10    26    27    1
    11    27    28    1
    12     4     5   ar
    13     5     6   ar
    14     6     7   ar
    15     7     8    1
    16     8     9    1
    17     9    10    1
    18    10    11   ar
    19    11    12   ar
    20    12    16    1
    21    16    17    3
    22    17    18    1
    23    18    19    1
    24    19    20    1
    25    12    13   ar
    26    13    14   ar
    27    14    15   ar
    28     7     2   ar
    29    15    10   ar
    30    28    23    1
    31    15     6    1
    32    20    18    1
