@<TRIPOS>MOLECULE
*****
 29 32 0 0 0
SMALL
GASTEIGER

@<TRIPOS>ATOM
      1 C          66.5185   94.8812   11.3502 C.3     1  UNL1        0.0534
      2 C          65.8409   93.6270   11.8172 C.ar    1  UNL1        0.0730
      3 N          64.8062   92.8493   11.0593 N.ar    1  UNL1       -0.2299
      4 C          64.4049   91.6720   11.8979 C.ar    1  UNL1        0.1604
      5 C          63.4248   90.5608   11.6642 C.ar    1  UNL1        0.0813
      6 C          63.2314   89.4998   12.7067 C.ar    1  UNL1        0.0365
      7 C          64.0182   89.5499   13.9828 C.ar    1  UNL1        0.0857
      8 C          64.9983   90.6611   14.2164 C.ar    1  UNL1        0.0989
      9 N          65.1917   91.7222   13.1739 N.ar    1  UNL1       -0.2906
     10 C          66.0792   92.9304   13.1241 C.ar    1  UNL1        0.0567
     11 C          67.0368   93.3656   14.1934 C.3     1  UNL1        0.0517
     12 N          63.8248   88.4889   15.0253 N.ar    1  UNL1       -0.2716
     13 C          64.2531   87.0783   14.7482 C.ar    1  UNL1        0.0830
     14 C          64.0598   86.0173   15.7907 C.ar    1  UNL1        0.0192
     15 C          63.4382   86.3668   17.1104 C.ar    1  UNL1        0.0064
     16 C          63.0099   87.7774   17.3875 C.ar    1  UNL1        0.0611
     17 C          63.2032   88.8384   16.3449 C.ar    1  UNL1        0.2649
     18 O          62.7749   90.2490   16.6220 O.2     1  UNL1       -0.2666
     19 N          62.6380   90.5107   10.3881 N.pl3   1  UNL1       -0.3266
     20 H          63.0467   90.8148    9.5456 H       1  UNL1        0.1472
     21 C          61.2287   89.9972   10.3956 C.3     1  UNL1        0.1152
     22 C          60.8617   88.8012    9.5681 C.ar    1  UNL1        0.0081
     23 C          59.9794   88.9630    8.3659 C.ar    1  UNL1        0.0005
     24 C          59.6124   87.7670    7.5384 C.ar    1  UNL1        0.0294
     25 C          60.1279   86.4090    7.9130 C.ar    1  UNL1        0.1410
     26 F          59.7609   85.2130    7.0855 F       1  UNL1       -0.2041
     27 C          61.0102   86.2472    9.1152 C.ar    1  UNL1        0.0408
     28 C          61.3771   87.4432    9.9428 C.ar    1  UNL1        0.0575
     29 CL         62.2595   87.2813   11.1449 Cl      1  UNL1       -0.0824
@<TRIPOS>BOND
     1     1     2    1
     2     2     3   ar
     3     3     4   ar
     4     4     5   ar
     5     5    19    1
     6    19    21    1
     7    21    22    1
     8    22    23   ar
     9    23    24   ar
    10    24    25   ar
    11    25    26    1
    12    25    27   ar
    13    27    28   ar
    14    28    29    1
    15     5     6   ar
    16     6     7   ar
    17     7    12    1
    18    12    13   ar
    19    13    14   ar
    20    14    15   ar
    21    15    16   ar
    22    16    17   ar
    23    17    18    2
    24     7     8   ar
    25     8     9   ar
    26     9    10   ar
    27    10    11    1
    28    10     2   ar
    29     9     4   ar
    30    28    22   ar
    31    17    12   ar
    32    19    20    1
@<TRIPOS>MOLECULE
*****
 29 32 0 0 0
SMALL
GASTEIGER

@<TRIPOS>ATOM
      1 C          60.7465   86.6844    9.2588 C.3     1  UNL1        0.0534
      2 C          61.5728   87.1633   10.4155 C.ar    1  UNL1        0.0730
      3 N          62.1066   86.3128   11.5298 N.ar    1  UNL1       -0.2299
      4 C          62.8740   87.2008   12.4639 C.ar    1  UNL1        0.1604
      5 C          63.6193   86.9159   13.7341 C.ar    1  UNL1        0.0813
      6 C          64.3051   88.0304   14.4674 C.ar    1  UNL1        0.0365
      7 C          64.2456   89.4297   13.9304 C.ar    1  UNL1        0.0857
      8 C          63.5003   89.7145   12.6602 C.ar    1  UNL1        0.0989
      9 N          62.8145   88.6001   11.9270 N.ar    1  UNL1       -0.2906
     10 C          62.0104   88.5770   10.6610 C.ar    1  UNL1        0.0567
     11 C          61.6985   89.7598    9.7929 C.3     1  UNL1        0.0517
     12 N          64.9315   90.5442   14.6636 N.ar    1  UNL1       -0.2716
     13 C          66.2386   91.0805   14.1600 C.ar    1  UNL1        0.0830
     14 C          66.9244   92.1950   14.8932 C.ar    1  UNL1        0.0192
     15 C          66.3031   92.7731   16.1300 C.ar    1  UNL1        0.0064
     16 C          64.9960   92.2368   16.6337 C.ar    1  UNL1        0.0611
     17 C          64.3101   91.1223   15.9004 C.ar    1  UNL1        0.2649
     18 O          63.0030   90.5859   16.4041 O.2     1  UNL1       -0.2666
     19 N          63.6788   85.5165   14.2711 N.pl3   1  UNL1       -0.3266
     20 H          63.0765   85.2431   15.0003 H       1  UNL1        0.1472
     21 C          64.6559   84.5338   13.6970 C.3     1  UNL1        0.1152
     22 C          64.1842   83.4785   12.7412 C.ar    1  UNL1        0.0081
     23 C          64.6151   83.5206   11.3050 C.ar    1  UNL1        0.0005
     24 C          64.1435   82.4653   10.3491 C.ar    1  UNL1        0.0294
     25 C          63.2409   81.3677   10.8294 C.ar    1  UNL1        0.1410
     26 F          62.7693   80.3123    9.8736 F       1  UNL1       -0.2041
     27 C          62.8100   81.3254   12.2655 C.ar    1  UNL1        0.0408
     28 C          63.2817   82.3809   13.2214 C.ar    1  UNL1        0.0575
     29 CL         62.8507   82.3387   14.6575 Cl      1  UNL1       -0.0824
@<TRIPOS>BOND
     1     1     2    1
     2     2     3   ar
     3     3     4   ar
     4     4     5   ar
     5     5    19    1
     6    19    21    1
     7    21    22    1
     8    22    23   ar
     9    23    24   ar
    10    24    25   ar
    11    25    26    1
    12    25    27   ar
    13    27    28   ar
    14    28    29    1
    15     5     6   ar
    16     6     7   ar
    17     7    12    1
    18    12    13   ar
    19    13    14   ar
    20    14    15   ar
    21    15    16   ar
    22    16    17   ar
    23    17    18    2
    24     7     8   ar
    25     8     9   ar
    26     9    10   ar
    27    10    11    1
    28    10     2   ar
    29     9     4   ar
    30    28    22   ar
    31    17    12   ar
    32    19    20    1
@<TRIPOS>MOLECULE
*****
 29 32 0 0 0
SMALL
GASTEIGER

@<TRIPOS>ATOM
      1 C          65.3336   91.1534   14.8059 C.3     1  UNL1        0.0534
      2 C          64.6080   90.1171   13.9997 C.ar    1  UNL1        0.0730
      3 N          64.4677   88.6657   14.3510 N.ar    1  UNL1       -0.2299
      4 C          63.6683   88.0020   13.2690 C.ar    1  UNL1        0.1604
      5 C          63.2168   86.5840   13.0808 C.ar    1  UNL1        0.0813
      6 C          62.4117   86.2074   11.8726 C.ar    1  UNL1        0.0365
      7 C          62.0580   87.2487   10.8526 C.ar    1  UNL1        0.0857
      8 C          62.5095   88.6667   11.0408 C.ar    1  UNL1        0.0989
      9 N          63.3147   89.0434   12.2490 N.ar    1  UNL1       -0.2906
     10 C          63.8954   90.3506   12.7005 C.ar    1  UNL1        0.0567
     11 C          63.7832   91.6611   11.9796 C.3     1  UNL1        0.0517
     12 N          61.2528   86.8721    9.6443 N.ar    1  UNL1       -0.2716
     13 C          59.8662   87.4161    9.4677 C.ar    1  UNL1        0.0830
     14 C          59.0610   87.0395    8.2595 C.ar    1  UNL1        0.0192
     15 C          59.6424   86.1189    7.2278 C.ar    1  UNL1        0.0064
     16 C          61.0291   85.5748    7.4044 C.ar    1  UNL1        0.0611
     17 C          61.8343   85.9515    8.6127 C.ar    1  UNL1        0.2649
     18 O          63.2210   85.4074    8.7893 O.2     1  UNL1       -0.2666
     19 N          63.5705   85.5427   14.1009 N.pl3   1  UNL1       -0.3266
     20 H          63.1885   85.5913   15.0069 H       1  UNL1        0.1472
     21 C          64.5064   84.4272   13.7405 C.3     1  UNL1        0.1152
     22 C          64.0741   83.3702   12.7680 C.ar    1  UNL1        0.0081
     23 C          64.6285   83.3615   11.3742 C.ar    1  UNL1        0.0005
     24 C          64.1962   82.3045   10.4016 C.ar    1  UNL1        0.0294
     25 C          63.2095   81.2562   10.8228 C.ar    1  UNL1        0.1410
     26 F          62.7772   80.1992    9.8503 F       1  UNL1       -0.2041
     27 C          62.6551   81.2648   12.2165 C.ar    1  UNL1        0.0408
     28 C          63.0874   82.3219   13.1892 C.ar    1  UNL1        0.0575
     29 CL         62.5329   82.3305   14.5829 Cl      1  UNL1       -0.0824
@<TRIPOS>BOND
     1     1     2    1
     2     2     3   ar
     3     3     4   ar
     4     4     5   ar
     5     5    19    1
     6    19    21    1
     7    21    22    1
     8    22    23   ar
     9    23    24   ar
    10    24    25   ar
    11    25    26    1
    12    25    27   ar
    13    27    28   ar
    14    28    29    1
    15     5     6   ar
    16     6     7   ar
    17     7    12    1
    18    12    13   ar
    19    13    14   ar
    20    14    15   ar
    21    15    16   ar
    22    16    17   ar
    23    17    18    2
    24     7     8   ar
    25     8     9   ar
    26     9    10   ar
    27    10    11    1
    28    10     2   ar
    29     9     4   ar
    30    28    22   ar
    31    17    12   ar
    32    19    20    1
@<TRIPOS>MOLECULE
*****
 29 32 0 0 0
SMALL
GASTEIGER

@<TRIPOS>ATOM
      1 C          63.1736   89.4213   16.3241 C.3     1  UNL1        0.0534
      2 C          63.5313   90.0890   15.0293 C.ar    1  UNL1        0.0730
      3 N          62.9484   89.7728   13.6839 N.ar    1  UNL1       -0.2299
      4 C          63.5916   90.6785   12.6757 C.ar    1  UNL1        0.1604
      5 C          63.4112   90.8188   11.1932 C.ar    1  UNL1        0.0813
      6 C          64.2110   91.8349   10.4332 C.ar    1  UNL1        0.0365
      7 C          65.1913   92.7107   11.1556 C.ar    1  UNL1        0.0857
      8 C          65.3717   92.5704   12.6381 C.ar    1  UNL1        0.0989
      9 N          64.5718   91.5543   13.3982 N.ar    1  UNL1       -0.2906
     10 C          64.5346   91.1900   14.8528 C.ar    1  UNL1        0.0567
     11 C          65.3564   91.8167   15.9399 C.3     1  UNL1        0.0517
     12 N          65.9912   93.7269   10.3956 N.ar    1  UNL1       -0.2716
     13 C          65.5023   95.1412   10.2917 C.ar    1  UNL1        0.0830
     14 C          66.3022   96.1573    9.5317 C.ar    1  UNL1        0.0192
     15 C          67.5910   95.7592    8.8755 C.ar    1  UNL1        0.0064
     16 C          68.0799   94.3449    8.9794 C.ar    1  UNL1        0.0611
     17 C          67.2799   93.3287    9.7394 C.ar    1  UNL1        0.2649
     18 O          67.7688   91.9144    9.8433 O.2     1  UNL1       -0.2666
     19 N          62.4308   89.9429   10.4708 N.pl3   1  UNL1       -0.3266
     20 H          61.8127   90.3348    9.8123 H       1  UNL1        0.1472
     21 C          62.3924   88.4699   10.7517 C.3     1  UNL1        0.1152
     22 C          61.9589   87.5133    9.6807 C.ar    1  UNL1        0.0081
     23 C          62.8588   86.3838    9.2749 C.ar    1  UNL1        0.0005
     24 C          62.4254   85.4272    8.2040 C.ar    1  UNL1        0.0294
     25 C          61.0921   85.5999    7.5388 C.ar    1  UNL1        0.1410
     26 F          60.6586   84.6433    6.4679 F       1  UNL1       -0.2041
     27 C          60.1922   86.7293    7.9446 C.ar    1  UNL1        0.0408
     28 C          60.6256   87.6860    9.0156 C.ar    1  UNL1        0.0575
     29 CL         59.7257   88.8154    9.4214 Cl      1  UNL1       -0.0824
@<TRIPOS>BOND
     1     1     2    1
     2     2     3   ar
     3     3     4   ar
     4     4     5   ar
     5     5    19    1
     6    19    21    1
     7    21    22    1
     8    22    23   ar
     9    23    24   ar
    10    24    25   ar
    11    25    26    1
    12    25    27   ar
    13    27    28   ar
    14    28    29    1
    15     5     6   ar
    16     6     7   ar
    17     7    12    1
    18    12    13   ar
    19    13    14   ar
    20    14    15   ar
    21    15    16   ar
    22    16    17   ar
    23    17    18    2
    24     7     8   ar
    25     8     9   ar
    26     9    10   ar
    27    10    11    1
    28    10     2   ar
    29     9     4   ar
    30    28    22   ar
    31    17    12   ar
    32    19    20    1
@<TRIPOS>MOLECULE
*****
 29 32 0 0 0
SMALL
GASTEIGER

@<TRIPOS>ATOM
      1 C          66.5311   93.5743   13.4164 C.3     1  UNL1        0.0534
      2 C          65.6296   92.4462   13.0103 C.ar    1  UNL1        0.0730
      3 N          65.2620   91.2631   13.8559 N.ar    1  UNL1       -0.2299
      4 C          64.3427   90.3889   13.0553 C.ar    1  UNL1        0.1604
      5 C          63.6623   89.0906   13.3738 C.ar    1  UNL1        0.0813
      6 C          62.7813   88.4351   12.3519 C.ar    1  UNL1        0.0365
      7 C          62.5808   89.0780   11.0116 C.ar    1  UNL1        0.0857
      8 C          63.2612   90.3763   10.6931 C.ar    1  UNL1        0.0989
      9 N          64.1422   91.0318   11.7150 N.ar    1  UNL1       -0.2906
     10 C          64.9375   92.3032   11.6871 C.ar    1  UNL1        0.0567
     11 C          65.0254   93.2632   10.5379 C.3     1  UNL1        0.0517
     12 N          61.6999   88.4225    9.9896 N.ar    1  UNL1       -0.2716
     13 C          62.0585   87.0711    9.4464 C.ar    1  UNL1        0.0830
     14 C          61.1776   86.4157    8.4245 C.ar    1  UNL1        0.0192
     15 C          59.9380   87.1116    7.9457 C.ar    1  UNL1        0.0064
     16 C          59.5794   88.4630    8.4890 C.ar    1  UNL1        0.0611
     17 C          60.4603   89.1184    9.5109 C.ar    1  UNL1        0.2649
     18 O          60.1017   90.4698   10.0542 O.2     1  UNL1       -0.2666
     19 N          63.8628   88.4478   14.7142 N.pl3   1  UNL1       -0.3266
     20 H          63.4897   88.8681   15.5225 H       1  UNL1        0.1472
     21 C          64.6318   87.1645   14.8230 C.3     1  UNL1        0.1152
     22 C          63.9105   85.8506   14.7654 C.ar    1  UNL1        0.0081
     23 C          63.9221   85.0433   13.5012 C.ar    1  UNL1        0.0005
     24 C          63.2007   83.7295   13.4436 C.ar    1  UNL1        0.0294
     25 C          62.4677   83.2229   14.6503 C.ar    1  UNL1        0.1410
     26 F          61.7463   81.9090   14.5928 F       1  UNL1       -0.2041
     27 C          62.4560   84.0301   15.9145 C.ar    1  UNL1        0.0408
     28 C          63.1774   85.3440   15.9721 C.ar    1  UNL1        0.0575
     29 CL         63.1658   86.1512   17.2363 Cl      1  UNL1       -0.0824
@<TRIPOS>BOND
     1     1     2    1
     2     2     3   ar
     3     3     4   ar
     4     4     5   ar
     5     5    19    1
     6    19    21    1
     7    21    22    1
     8    22    23   ar
     9    23    24   ar
    10    24    25   ar
    11    25    26    1
    12    25    27   ar
    13    27    28   ar
    14    28    29    1
    15     5     6   ar
    16     6     7   ar
    17     7    12    1
    18    12    13   ar
    19    13    14   ar
    20    14    15   ar
    21    15    16   ar
    22    16    17   ar
    23    17    18    2
    24     7     8   ar
    25     8     9   ar
    26     9    10   ar
    27    10    11    1
    28    10     2   ar
    29     9     4   ar
    30    28    22   ar
    31    17    12   ar
    32    19    20    1
@<TRIPOS>MOLECULE
*****
 29 32 0 0 0
SMALL
GASTEIGER

@<TRIPOS>ATOM
      1 C          59.3636   89.2241    7.1194 C.3     1  UNL1        0.0534
      2 C          60.1055   88.5606    8.2417 C.ar    1  UNL1        0.0730
      3 N          60.7447   89.2545    9.4078 N.ar    1  UNL1       -0.2299
      4 C          61.3726   88.2093   10.2817 C.ar    1  UNL1        0.1604
      5 C          62.1406   88.3046   11.5666 C.ar    1  UNL1        0.0813
      6 C          62.6574   87.0602   12.2256 C.ar    1  UNL1        0.0365
      7 C          62.4062   85.7204   11.5995 C.ar    1  UNL1        0.0857
      8 C          61.6382   85.6252   10.3146 C.ar    1  UNL1        0.0989
      9 N          61.1214   86.8696    9.6557 N.ar    1  UNL1       -0.2906
     10 C          60.3382   87.0867    8.3949 C.ar    1  UNL1        0.0567
     11 C          59.8701   86.0175    7.4527 C.3     1  UNL1        0.0517
     12 N          62.9230   84.4759   12.2584 N.ar    1  UNL1       -0.2716
     13 C          62.6661   84.2374   13.7169 C.ar    1  UNL1        0.0830
     14 C          63.1829   82.9930   14.3758 C.ar    1  UNL1        0.0192
     15 C          63.9566   81.9869   13.5763 C.ar    1  UNL1        0.0064
     16 C          64.2134   82.2253   12.1178 C.ar    1  UNL1        0.0611
     17 C          63.6966   83.4698   11.4589 C.ar    1  UNL1        0.2649
     18 O          63.9535   83.7083   10.0004 O.2     1  UNL1       -0.2666
     19 N          62.3919   89.6444   12.1927 N.pl3   1  UNL1       -0.3266
     20 H          61.8561   89.9347   12.9659 H       1  UNL1        0.1472
     21 C          63.4594   90.5419   11.6405 C.3     1  UNL1        0.1152
     22 C          64.3991   91.2501   12.5708 C.ar    1  UNL1        0.0081
     23 C          64.5042   90.8175   14.0032 C.ar    1  UNL1        0.0005
     24 C          65.4439   91.5256   14.9335 C.ar    1  UNL1        0.0294
     25 C          66.2784   92.6664   14.4314 C.ar    1  UNL1        0.1410
     26 F          67.2181   93.3746   15.3617 F       1  UNL1       -0.2041
     27 C          66.1734   93.0991   12.9991 C.ar    1  UNL1        0.0408
     28 C          65.2336   92.3909   12.0687 C.ar    1  UNL1        0.0575
     29 CL         65.1286   92.8235   10.6363 Cl      1  UNL1       -0.0824
@<TRIPOS>BOND
     1     1     2    1
     2     2     3   ar
     3     3     4   ar
     4     4     5   ar
     5     5    19    1
     6    19    21    1
     7    21    22    1
     8    22    23   ar
     9    23    24   ar
    10    24    25   ar
    11    25    26    1
    12    25    27   ar
    13    27    28   ar
    14    28    29    1
    15     5     6   ar
    16     6     7   ar
    17     7    12    1
    18    12    13   ar
    19    13    14   ar
    20    14    15   ar
    21    15    16   ar
    22    16    17   ar
    23    17    18    2
    24     7     8   ar
    25     8     9   ar
    26     9    10   ar
    27    10    11    1
    28    10     2   ar
    29     9     4   ar
    30    28    22   ar
    31    17    12   ar
    32    19    20    1
@<TRIPOS>MOLECULE
*****
 29 32 0 0 0
SMALL
GASTEIGER

@<TRIPOS>ATOM
      1 C          62.7880   83.0054   13.1921 C.3     1  UNL1        0.0534
      2 C          63.0488   84.4820   13.2342 C.ar    1  UNL1        0.0730
      3 N          62.6099   85.4844   12.2083 N.ar    1  UNL1       -0.2299
      4 C          63.0843   86.8373   12.6497 C.ar    1  UNL1        0.1604
      5 C          62.9442   88.1992   12.0368 C.ar    1  UNL1        0.0813
      6 C          63.5361   89.3948   12.7225 C.ar    1  UNL1        0.0365
      7 C          64.2681   89.2284   14.0211 C.ar    1  UNL1        0.0857
      8 C          64.4082   87.8665   14.6340 C.ar    1  UNL1        0.0989
      9 N          63.8163   86.6710   13.9483 N.ar    1  UNL1       -0.2906
     10 C          63.7944   85.2153   14.3095 C.ar    1  UNL1        0.0567
     11 C          64.4100   84.6009   15.5316 C.3     1  UNL1        0.0517
     12 N          64.8600   90.4240   14.7069 N.ar    1  UNL1       -0.2716
     13 C          66.1380   91.0233   14.1994 C.ar    1  UNL1        0.0830
     14 C          66.7300   92.2189   14.8851 C.ar    1  UNL1        0.0192
     15 C          66.0439   92.8151   16.0784 C.ar    1  UNL1        0.0064
     16 C          64.7660   92.2158   16.5860 C.ar    1  UNL1        0.0611
     17 C          64.1740   91.0202   15.9002 C.ar    1  UNL1        0.2649
     18 O          62.8960   90.4209   16.4077 O.2     1  UNL1       -0.2666
     19 N          62.2121   88.3655   10.7381 N.pl3   1  UNL1       -0.3266
     20 H          62.4201   89.1270   10.1498 H       1  UNL1        0.1472
     21 C          61.1632   87.3716   10.3358 C.3     1  UNL1        0.1152
     22 C          61.3661   86.5179    9.1193 C.ar    1  UNL1        0.0081
     23 C          62.6987   85.8772    8.8664 C.ar    1  UNL1        0.0005
     24 C          62.9017   85.0235    7.6499 C.ar    1  UNL1        0.0294
     25 C          61.7721   84.8104    6.6863 C.ar    1  UNL1        0.1410
     26 F          61.9751   83.9567    5.4698 F       1  UNL1       -0.2041
     27 C          60.4396   85.4510    6.9391 C.ar    1  UNL1        0.0408
     28 C          60.2366   86.3047    8.1557 C.ar    1  UNL1        0.0575
     29 CL         58.9040   86.9453    8.4085 Cl      1  UNL1       -0.0824
@<TRIPOS>BOND
     1     1     2    1
     2     2     3   ar
     3     3     4   ar
     4     4     5   ar
     5     5    19    1
     6    19    21    1
     7    21    22    1
     8    22    23   ar
     9    23    24   ar
    10    24    25   ar
    11    25    26    1
    12    25    27   ar
    13    27    28   ar
    14    28    29    1
    15     5     6   ar
    16     6     7   ar
    17     7    12    1
    18    12    13   ar
    19    13    14   ar
    20    14    15   ar
    21    15    16   ar
    22    16    17   ar
    23    17    18    2
    24     7     8   ar
    25     8     9   ar
    26     9    10   ar
    27    10    11    1
    28    10     2   ar
    29     9     4   ar
    30    28    22   ar
    31    17    12   ar
    32    19    20    1
@<TRIPOS>MOLECULE
*****
 29 32 0 0 0
SMALL
GASTEIGER

@<TRIPOS>ATOM
      1 C          64.3825   83.0299   14.9572 C.3     1  UNL1        0.0534
      2 C          63.8299   84.0904   14.0516 C.ar    1  UNL1        0.0730
      3 N          64.0839   85.5645   14.1625 N.ar    1  UNL1       -0.2299
      4 C          63.3372   86.2480   13.0555 C.ar    1  UNL1        0.1604
      5 C          63.2164   87.6923   12.6687 C.ar    1  UNL1        0.0813
      6 C          62.3801   88.0848   11.4870 C.ar    1  UNL1        0.0365
      7 C          61.6646   87.0331   10.6921 C.ar    1  UNL1        0.0857
      8 C          61.7854   85.5889   11.0789 C.ar    1  UNL1        0.0989
      9 N          62.6217   85.1963   12.2606 N.ar    1  UNL1       -0.2906
     10 C          62.9262   83.8628   12.8762 C.ar    1  UNL1        0.0567
     11 C          62.4164   82.5349   12.4000 C.3     1  UNL1        0.0517
     12 N          60.8282   87.4256    9.5103 N.ar    1  UNL1       -0.2716
     13 C          60.1666   86.3693    8.6758 C.ar    1  UNL1        0.0830
     14 C          59.3303   86.7617    7.4941 C.ar    1  UNL1        0.0192
     15 C          59.1555   88.2105    7.1468 C.ar    1  UNL1        0.0064
     16 C          59.8172   89.2669    7.9814 C.ar    1  UNL1        0.0611
     17 C          60.6535   88.8744    9.1631 C.ar    1  UNL1        0.2649
     18 O          61.3152   89.9307    9.9977 O.2     1  UNL1       -0.2666
     19 N          63.9320   88.7440   13.4637 N.pl3   1  UNL1       -0.3266
     20 H          64.7020   88.4976   14.0255 H       1  UNL1        0.1472
     21 C          63.4744   90.1712   13.4026 C.3     1  UNL1        0.1152
     22 C          64.3447   91.2111   12.7615 C.ar    1  UNL1        0.0081
     23 C          64.1353   91.5815   11.3231 C.ar    1  UNL1        0.0005
     24 C          65.0056   92.6214   10.6820 C.ar    1  UNL1        0.0294
     25 C          66.0854   93.2910   11.4793 C.ar    1  UNL1        0.1410
     26 F          66.9557   94.3309   10.8382 F       1  UNL1       -0.2041
     27 C          66.2949   92.9207   12.9176 C.ar    1  UNL1        0.0408
     28 C          65.4245   91.8807   13.5588 C.ar    1  UNL1        0.0575
     29 CL         65.6340   91.5104   14.9972 Cl      1  UNL1       -0.0824
@<TRIPOS>BOND
     1     1     2    1
     2     2     3   ar
     3     3     4   ar
     4     4     5   ar
     5     5    19    1
     6    19    21    1
     7    21    22    1
     8    22    23   ar
     9    23    24   ar
    10    24    25   ar
    11    25    26    1
    12    25    27   ar
    13    27    28   ar
    14    28    29    1
    15     5     6   ar
    16     6     7   ar
    17     7    12    1
    18    12    13   ar
    19    13    14   ar
    20    14    15   ar
    21    15    16   ar
    22    16    17   ar
    23    17    18    2
    24     7     8   ar
    25     8     9   ar
    26     9    10   ar
    27    10    11    1
    28    10     2   ar
    29     9     4   ar
    30    28    22   ar
    31    17    12   ar
    32    19    20    1
@<TRIPOS>MOLECULE
*****
 29 32 0 0 0
SMALL
GASTEIGER

@<TRIPOS>ATOM
      1 C          65.5601   91.5016   14.8554 C.3     1  UNL1        0.0534
      2 C          64.8077   90.4768   14.0592 C.ar    1  UNL1        0.0730
      3 N          64.6364   89.0311   14.4208 N.ar    1  UNL1       -0.2299
      4 C          63.8173   88.3787   13.3467 C.ar    1  UNL1        0.1604
      5 C          63.3331   86.9700   13.1699 C.ar    1  UNL1        0.0813
      6 C          62.5141   86.6038   11.9678 C.ar    1  UNL1        0.0365
      7 C          62.1792   87.6462   10.9426 C.ar    1  UNL1        0.0857
      8 C          62.6633   89.0549   11.1194 C.ar    1  UNL1        0.0989
      9 N          63.4824   89.4211   12.3215 N.ar    1  UNL1       -0.2906
     10 C          64.0944   90.7178   12.7618 C.ar    1  UNL1        0.0567
     11 C          64.0084   92.0258   12.0328 C.3     1  UNL1        0.0517
     12 N          61.3601   87.2800    9.7405 N.ar    1  UNL1       -0.2716
     13 C          61.7594   86.1118    8.8885 C.ar    1  UNL1        0.0830
     14 C          60.9403   85.7456    7.6864 C.ar    1  UNL1        0.0192
     15 C          59.7220   86.5475    7.3362 C.ar    1  UNL1        0.0064
     16 C          59.3227   87.7157    8.1883 C.ar    1  UNL1        0.0611
     17 C          60.1418   88.0819    9.3904 C.ar    1  UNL1        0.2649
     18 O          59.7425   89.2501   10.2424 O.2     1  UNL1       -0.2666
     19 N          63.6680   85.9276   14.1952 N.pl3   1  UNL1       -0.3266
     20 H          63.4133   86.0631   15.1365 H       1  UNL1        0.1472
     21 C          64.3912   84.6786   13.7864 C.3     1  UNL1        0.1152
     22 C          63.6361   83.3921   13.6292 C.ar    1  UNL1        0.0081
     23 C          62.7344   82.9126   14.7279 C.ar    1  UNL1        0.0005
     24 C          61.9793   81.6261   14.5707 C.ar    1  UNL1        0.0294
     25 C          62.1258   80.8191   13.3148 C.ar    1  UNL1        0.1410
     26 F          61.3707   79.5326   13.1576 F       1  UNL1       -0.2041
     27 C          63.0274   81.2986   12.2161 C.ar    1  UNL1        0.0408
     28 C          63.7825   82.5851   12.3733 C.ar    1  UNL1        0.0575
     29 CL         64.6841   83.0646   11.2745 Cl      1  UNL1       -0.0824
@<TRIPOS>BOND
     1     1     2    1
     2     2     3   ar
     3     3     4   ar
     4     4     5   ar
     5     5    19    1
     6    19    21    1
     7    21    22    1
     8    22    23   ar
     9    23    24   ar
    10    24    25   ar
    11    25    26    1
    12    25    27   ar
    13    27    28   ar
    14    28    29    1
    15     5     6   ar
    16     6     7   ar
    17     7    12    1
    18    12    13   ar
    19    13    14   ar
    20    14    15   ar
    21    15    16   ar
    22    16    17   ar
    23    17    18    2
    24     7     8   ar
    25     8     9   ar
    26     9    10   ar
    27    10    11    1
    28    10     2   ar
    29     9     4   ar
    30    28    22   ar
    31    17    12   ar
    32    19    20    1
