@<TRIPOS>MOLECULE
*****
 30 33 0 0 0
SMALL
GASTEIGER

@<TRIPOS>ATOM
      1 C          59.4299   88.7372    7.6731 C.ar    1  UNL1       -0.0209
      2 C          59.2405   87.2906    7.3247 C.ar    1  UNL1       -0.0027
      3 C          60.1187   86.2474    7.9495 C.ar    1  UNL1        0.0185
      4 C          61.1865   86.6508    8.9226 C.ar    1  UNL1        0.0789
      5 C          61.3759   88.0974    9.2710 C.ar    1  UNL1        0.0666
      6 C          60.4977   89.1405    8.6462 C.ar    1  UNL1        0.0119
      7 N          62.0648   85.6076    9.5474 N.ar    1  UNL1       -0.2852
      8 C          62.0345   85.1742   10.9831 C.ar    1  UNL1        0.1023
      9 C          63.0786   84.1134   11.1693 C.ar    1  UNL1        0.1196
     10 N          63.7541   83.8911    9.8485 N.ar    1  UNL1       -0.2220
     11 C          63.1275   84.8146    8.8462 C.ar    1  UNL1        0.1829
     12 N          62.4437   88.5008   10.2443 N.am    1  UNL1       -0.2788
     13 C          62.0723   88.9049   11.6402 C.2     1  UNL1        0.2571
     14 O          60.6332   88.9055   12.0630 O.2     1  UNL1       -0.2692
     15 H          63.3883   88.5004    9.9668 H       1  UNL1        0.1552
     16 C          63.1401   89.3083   12.6135 C.ar    1  UNL1        0.1035
     17 C          63.6945   88.4569   13.7170 C.ar    1  UNL1        0.1105
     18 N          64.7380   89.2564   14.4396 N.ar    1  UNL1       -0.2366
     19 C          64.8284   90.6019   13.7826 C.ar    1  UNL1        0.1109
     20 S          63.8409   90.6339   12.6540 S.2     1  UNL1       -0.0619
     21 C          65.7454   91.7190   14.1837 C.ar    1  UNL1        0.0238
     22 C          65.8299   92.9586   13.3432 C.ar    1  UNL1        0.0020
     23 C          66.7469   94.0757   13.7444 C.ar    1  UNL1        0.0001
     24 C          67.5794   93.9535   14.9861 C.ar    1  UNL1        0.0000
     25 C          67.4950   92.7139   15.8268 C.ar    1  UNL1        0.0001
     26 C          66.5779   91.5968   15.4255 C.ar    1  UNL1        0.0020
     27 C          58.5516   89.7803    7.0483 C.3     1  UNL1        0.0264
     28 C          57.9903   91.2304    4.9669 C.3     1  UNL1        0.0003
     29 C          58.9889   90.4750    5.7928 C.3     1  UNL1        0.0044
     30 C          60.4248   90.4142    5.3632 C.3     1  UNL1        0.0003
@<TRIPOS>BOND
     1    28    29    1
     2    29    30    1
     3    29    27    1
     4    27     1    1
     5     1     2   ar
     6     2     3   ar
     7     3     4   ar
     8     4     7    1
     9     7     8   ar
    10     8     9   ar
    11     9    10   ar
    12    10    11   ar
    13     4     5   ar
    14     5    12    1
    15    12    13   am
    16    13    14    2
    17    13    16    1
    18    16    17   ar
    19    17    18   ar
    20    18    19   ar
    21    19    21    1
    22    21    22   ar
    23    22    23   ar
    24    23    24   ar
    25    24    25   ar
    26    25    26   ar
    27    19    20   ar
    28     5     6   ar
    29     6     1   ar
    30    11     7   ar
    31    20    16   ar
    32    26    21   ar
    33    12    15    1
@<TRIPOS>MOLECULE
*****
 30 33 0 0 0
SMALL
GASTEIGER

@<TRIPOS>ATOM
      1 C          65.0037   91.0269   14.2579 C.ar    1  UNL1       -0.0209
      2 C          64.2218   91.8996   13.3214 C.ar    1  UNL1       -0.0027
      3 C          63.2626   91.2833   12.3467 C.ar    1  UNL1        0.0185
      4 C          63.0852   89.7944   12.3084 C.ar    1  UNL1        0.0789
      5 C          63.8671   88.9217   13.2449 C.ar    1  UNL1        0.0666
      6 C          64.8263   89.5380   14.2197 C.ar    1  UNL1        0.0119
      7 N          62.1260   89.1781   11.3337 N.ar    1  UNL1       -0.2852
      8 C          60.6328   89.1398   11.4706 C.ar    1  UNL1        0.1023
      9 C          60.0755   88.4300   10.2724 C.ar    1  UNL1        0.1196
     10 N          61.2243   88.0296    9.3950 N.ar    1  UNL1       -0.2220
     11 C          62.4916   88.4919   10.0509 C.ar    1  UNL1        0.1829
     12 N          63.6897   87.4326   13.2067 N.am    1  UNL1       -0.2788
     13 C          63.6454   86.6496   14.4853 C.2     1  UNL1        0.2571
     14 O          63.7784   87.3555   15.8021 O.2     1  UNL1       -0.2692
     15 H          63.6024   86.9693   12.3425 H       1  UNL1        0.1552
     16 C          63.4681   85.1605   14.4471 C.ar    1  UNL1        0.1035
     17 C          63.3687   84.2537   15.6378 C.ar    1  UNL1        0.1105
     18 N          63.1982   82.8496   15.1381 N.ar    1  UNL1       -0.2366
     19 C          63.1922   82.8888   13.6386 C.ar    1  UNL1        0.1109
     20 S          63.3590   84.3170   13.2115 S.2     1  UNL1       -0.0619
     21 C          63.0453   81.7073   12.7264 C.ar    1  UNL1        0.0238
     22 C          62.6223   80.3793   13.2811 C.ar    1  UNL1        0.0020
     23 C          62.4753   79.1978   12.3689 C.ar    1  UNL1        0.0001
     24 C          62.7513   79.3441   10.9018 C.ar    1  UNL1        0.0000
     25 C          63.1743   80.6720   10.3469 C.ar    1  UNL1        0.0001
     26 C          63.3213   81.8535   11.2593 C.ar    1  UNL1        0.0020
     27 C          65.9629   91.6432   15.2327 C.3     1  UNL1        0.0264
     28 C          67.7800   91.7922   13.3818 C.3     1  UNL1        0.0003
     29 C          67.3811   91.9091   14.8230 C.3     1  UNL1        0.0044
     30 C          68.4005   92.2921   15.8547 C.3     1  UNL1        0.0003
@<TRIPOS>BOND
     1    28    29    1
     2    29    30    1
     3    29    27    1
     4    27     1    1
     5     1     2   ar
     6     2     3   ar
     7     3     4   ar
     8     4     7    1
     9     7     8   ar
    10     8     9   ar
    11     9    10   ar
    12    10    11   ar
    13     4     5   ar
    14     5    12    1
    15    12    13   am
    16    13    14    2
    17    13    16    1
    18    16    17   ar
    19    17    18   ar
    20    18    19   ar
    21    19    21    1
    22    21    22   ar
    23    22    23   ar
    24    23    24   ar
    25    24    25   ar
    26    25    26   ar
    27    19    20   ar
    28     5     6   ar
    29     6     1   ar
    30    11     7   ar
    31    20    16   ar
    32    26    21   ar
    33    12    15    1
@<TRIPOS>MOLECULE
*****
 30 33 0 0 0
SMALL
GASTEIGER

@<TRIPOS>ATOM
      1 C          63.6027   85.1852   13.8927 C.ar    1  UNL1       -0.0209
      2 C          64.2079   86.3218   14.6619 C.ar    1  UNL1       -0.0027
      3 C          64.1486   87.7158   14.1112 C.ar    1  UNL1        0.0185
      4 C          63.4842   87.9732   12.7913 C.ar    1  UNL1        0.0789
      5 C          62.8790   86.8365   12.0221 C.ar    1  UNL1        0.0666
      6 C          62.9383   85.4425   12.5728 C.ar    1  UNL1        0.0119
      7 N          63.4249   89.3671   12.2406 N.ar    1  UNL1       -0.2852
      8 C          63.0886   89.7436   10.8281 C.ar    1  UNL1        0.1023
      9 C          63.1474   91.2385   10.7202 C.ar    1  UNL1        0.1196
     10 N          63.5200   91.7861   12.0660 N.ar    1  UNL1       -0.2220
     11 C          63.6916   90.6295   13.0056 C.ar    1  UNL1        0.1829
     12 N          62.2145   87.0938   10.7021 N.am    1  UNL1       -0.2788
     13 C          60.8004   87.5922   10.6587 C.2     1  UNL1        0.2571
     14 O          60.0508   87.8333   11.9354 O.2     1  UNL1       -0.2692
     15 H          62.7065   86.9355    9.8641 H       1  UNL1        0.1552
     16 C          60.1360   87.8495    9.3387 C.ar    1  UNL1        0.1035
     17 C          59.3334   86.8593    8.5479 C.ar    1  UNL1        0.1105
     18 N          58.8588   87.5399    7.2982 N.ar    1  UNL1       -0.2366
     19 C          59.3681   88.9508    7.3168 C.ar    1  UNL1        0.1109
     20 S          60.1574   89.1421    8.5779 S.2     1  UNL1       -0.0619
     21 C          59.1299   89.9881    6.2600 C.ar    1  UNL1        0.0238
     22 C          60.2906   90.5914    5.5260 C.ar    1  UNL1        0.0020
     23 C          60.0524   91.6287    4.4691 C.ar    1  UNL1        0.0001
     24 C          58.6534   92.0629    4.1461 C.ar    1  UNL1        0.0000
     25 C          57.4926   91.4596    4.8800 C.ar    1  UNL1        0.0001
     26 C          57.7309   90.4222    5.9370 C.ar    1  UNL1        0.0020
     27 C          63.6620   83.7912   14.4434 C.3     1  UNL1        0.0264
     28 C          62.0888   81.8322   13.7820 C.3     1  UNL1        0.0003
     29 C          63.3448   82.6215   13.5596 C.3     1  UNL1        0.0044
     30 C          64.2837   82.2410   12.4533 C.3     1  UNL1        0.0003
@<TRIPOS>BOND
     1    28    29    1
     2    29    30    1
     3    29    27    1
     4    27     1    1
     5     1     2   ar
     6     2     3   ar
     7     3     4   ar
     8     4     7    1
     9     7     8   ar
    10     8     9   ar
    11     9    10   ar
    12    10    11   ar
    13     4     5   ar
    14     5    12    1
    15    12    13   am
    16    13    14    2
    17    13    16    1
    18    16    17   ar
    19    17    18   ar
    20    18    19   ar
    21    19    21    1
    22    21    22   ar
    23    22    23   ar
    24    23    24   ar
    25    24    25   ar
    26    25    26   ar
    27    19    20   ar
    28     5     6   ar
    29     6     1   ar
    30    11     7   ar
    31    20    16   ar
    32    26    21   ar
    33    12    15    1
@<TRIPOS>MOLECULE
*****
 30 33 0 0 0
SMALL
GASTEIGER

@<TRIPOS>ATOM
      1 C          62.8940   82.3950   11.9828 C.ar    1  UNL1       -0.0209
      2 C          62.3741   81.8311   13.2719 C.ar    1  UNL1       -0.0027
      3 C          62.2385   82.7147   14.4764 C.ar    1  UNL1        0.0185
      4 C          62.6228   84.1622   14.3918 C.ar    1  UNL1        0.0789
      5 C          63.1427   84.7260   13.1028 C.ar    1  UNL1        0.0666
      6 C          63.2783   83.8424   11.8983 C.ar    1  UNL1        0.0119
      7 N          62.4871   85.0458   15.5964 N.ar    1  UNL1       -0.2852
      8 C          63.6155   85.6031   16.4126 C.ar    1  UNL1        0.1023
      9 C          63.0251   86.4289   17.5168 C.ar    1  UNL1        0.1196
     10 N          61.5318   86.3821   17.3831 N.ar    1  UNL1       -0.2220
     11 C          61.1994   85.5273   16.1961 C.ar    1  UNL1        0.1829
     12 N          63.5270   86.1736   13.0182 N.am    1  UNL1       -0.2788
     13 C          62.6421   87.1433   12.2926 C.2     1  UNL1        0.2571
     14 O          61.3729   86.6656   11.6515 O.2     1  UNL1       -0.2692
     15 H          64.3600   86.4871   13.4389 H       1  UNL1        0.1552
     16 C          63.0264   88.5908   12.2080 C.ar    1  UNL1        0.1035
     17 C          62.4500   89.6021   11.2619 C.ar    1  UNL1        0.1105
     18 N          63.1219   90.9175   11.5238 N.ar    1  UNL1       -0.2366
     19 C          64.1135   90.7190   12.6317 C.ar    1  UNL1        0.1109
     20 S          64.0544   89.2810   13.0545 S.2     1  UNL1       -0.0619
     21 C          65.0071   91.7733   13.2144 C.ar    1  UNL1        0.0238
     22 C          65.4274   91.6897   14.6519 C.ar    1  UNL1        0.0020
     23 C          66.3211   92.7440   15.2347 C.ar    1  UNL1        0.0001
     24 C          66.7946   93.8821   14.3800 C.ar    1  UNL1        0.0000
     25 C          66.3743   93.9658   12.9424 C.ar    1  UNL1        0.0001
     26 C          65.4806   92.9114   12.3597 C.ar    1  UNL1        0.0020
     27 C          63.0297   81.5114   10.7783 C.3     1  UNL1        0.0264
     28 C          62.6403   79.4127   12.2595 C.3     1  UNL1        0.0003
     29 C          62.8111   80.0328   10.9044 C.3     1  UNL1        0.0044
     30 C          62.7634   79.1742    9.6753 C.3     1  UNL1        0.0003
@<TRIPOS>BOND
     1    28    29    1
     2    29    30    1
     3    29    27    1
     4    27     1    1
     5     1     2   ar
     6     2     3   ar
     7     3     4   ar
     8     4     7    1
     9     7     8   ar
    10     8     9   ar
    11     9    10   ar
    12    10    11   ar
    13     4     5   ar
    14     5    12    1
    15    12    13   am
    16    13    14    2
    17    13    16    1
    18    16    17   ar
    19    17    18   ar
    20    18    19   ar
    21    19    21    1
    22    21    22   ar
    23    22    23   ar
    24    23    24   ar
    25    24    25   ar
    26    25    26   ar
    27    19    20   ar
    28     5     6   ar
    29     6     1   ar
    30    11     7   ar
    31    20    16   ar
    32    26    21   ar
    33    12    15    1
@<TRIPOS>MOLECULE
*****
 30 33 0 0 0
SMALL
GASTEIGER

@<TRIPOS>ATOM
      1 C          65.9194   93.0676   13.1800 C.ar    1  UNL1       -0.0209
      2 C          66.0577   92.9333   14.6675 C.ar    1  UNL1       -0.0027
      3 C          65.4646   91.7493   15.3721 C.ar    1  UNL1        0.0185
      4 C          64.7333   90.6996   14.5891 C.ar    1  UNL1        0.0789
      5 C          64.5950   90.8338   13.1016 C.ar    1  UNL1        0.0666
      6 C          65.1880   92.0178   12.3970 C.ar    1  UNL1        0.0119
      7 N          64.1402   89.5156   15.2937 N.ar    1  UNL1       -0.2852
      8 C          63.2726   89.5608   16.5165 C.ar    1  UNL1        0.1023
      9 C          62.9068   88.1516   16.8777 C.ar    1  UNL1        0.1196
     10 N          63.5483   87.2355   15.8782 N.ar    1  UNL1       -0.2220
     11 C          64.3106   88.0784   14.8992 C.ar    1  UNL1        0.1829
     12 N          63.8636   89.7840   12.3186 N.am    1  UNL1       -0.2788
     13 C          62.4665   90.0437   11.8386 C.2     1  UNL1        0.2571
     14 O          61.8006   91.3532   12.1416 O.2     1  UNL1       -0.2692
     15 H          64.3007   88.9245   12.1197 H       1  UNL1        0.1552
     16 C          61.7351   88.9939   11.0555 C.ar    1  UNL1        0.1035
     17 C          60.2947   88.6111   11.2252 C.ar    1  UNL1        0.1105
     18 N          59.9851   87.5232   10.2399 N.ar    1  UNL1       -0.2366
     19 C          61.2342   87.2337    9.4613 C.ar    1  UNL1        0.1109
     20 S          62.3157   88.1427    9.9654 S.2     1  UNL1       -0.0619
     21 C          61.3767   86.2144    8.3703 C.ar    1  UNL1        0.0238
     22 C          62.6980   85.5431    8.1388 C.ar    1  UNL1        0.0020
     23 C          62.8404   84.5237    7.0478 C.ar    1  UNL1        0.0001
     24 C          61.6616   84.1755    6.1881 C.ar    1  UNL1        0.0000
     25 C          60.3402   84.8467    6.4195 C.ar    1  UNL1        0.0001
     26 C          60.1978   85.8661    7.5106 C.ar    1  UNL1        0.0020
     27 C          66.5124   94.2516   12.4754 C.3     1  UNL1        0.0264
     28 C          65.4508   95.3991   10.4003 C.3     1  UNL1        0.0003
     29 C          66.3830   94.3806   10.9866 C.3     1  UNL1        0.0044
     30 C          67.1857   93.4912   10.0841 C.3     1  UNL1        0.0003
@<TRIPOS>BOND
     1    28    29    1
     2    29    30    1
     3    29    27    1
     4    27     1    1
     5     1     2   ar
     6     2     3   ar
     7     3     4   ar
     8     4     7    1
     9     7     8   ar
    10     8     9   ar
    11     9    10   ar
    12    10    11   ar
    13     4     5   ar
    14     5    12    1
    15    12    13   am
    16    13    14    2
    17    13    16    1
    18    16    17   ar
    19    17    18   ar
    20    18    19   ar
    21    19    21    1
    22    21    22   ar
    23    22    23   ar
    24    23    24   ar
    25    24    25   ar
    26    25    26   ar
    27    19    20   ar
    28     5     6   ar
    29     6     1   ar
    30    11     7   ar
    31    20    16   ar
    32    26    21   ar
    33    12    15    1
@<TRIPOS>MOLECULE
*****
 30 33 0 0 0
SMALL
GASTEIGER

@<TRIPOS>ATOM
      1 C          63.4823   90.6579   12.1078 C.ar    1  UNL1       -0.0209
      2 C          62.7589   91.2862   10.9538 C.ar    1  UNL1       -0.0027
      3 C          61.9619   90.4316   10.0132 C.ar    1  UNL1        0.0185
      4 C          61.8884   88.9487   10.2268 C.ar    1  UNL1        0.0789
      5 C          62.6119   88.3204   11.3808 C.ar    1  UNL1        0.0666
      6 C          63.4088   89.1750   12.3213 C.ar    1  UNL1        0.0119
      7 N          61.0915   88.0941    9.2863 N.ar    1  UNL1       -0.2852
      8 C          59.8074   88.4825    8.6152 C.ar    1  UNL1        0.1023
      9 C          59.3610   87.3295    7.7659 C.ar    1  UNL1        0.1196
     10 N          60.3692   86.2285    7.9120 N.ar    1  UNL1       -0.2220
     11 C          61.4387   86.7010    8.8517 C.ar    1  UNL1        0.1829
     12 N          62.5384   86.8375   11.5944 N.am    1  UNL1       -0.2788
     13 C          63.1798   86.2210   12.8021 C.2     1  UNL1        0.2571
     14 O          63.8947   87.0874   13.7962 O.2     1  UNL1       -0.2692
     15 H          62.0692   86.2688   10.9419 H       1  UNL1        0.1552
     16 C          63.1064   84.7380   13.0156 C.ar    1  UNL1        0.1035
     17 C          63.1112   84.0370   14.3418 C.ar    1  UNL1        0.1105
     18 N          63.0230   82.5615   14.0864 N.ar    1  UNL1       -0.2366
     19 C          62.9637   82.3507   12.6024 C.ar    1  UNL1        0.1109
     20 S          63.0152   83.6959   11.9407 S.2     1  UNL1       -0.0619
     21 C          62.8694   81.0272   11.9030 C.ar    1  UNL1        0.0238
     22 C          62.5511   79.7869   12.6843 C.ar    1  UNL1        0.0020
     23 C          62.4569   78.4634   11.9849 C.ar    1  UNL1        0.0001
     24 C          62.6808   78.3800   10.5041 C.ar    1  UNL1        0.0000
     25 C          62.9991   79.6202    9.7226 C.ar    1  UNL1        0.0001
     26 C          63.0934   80.9438   10.4221 C.ar    1  UNL1        0.0020
     27 C          64.2792   91.5125   13.0483 C.3     1  UNL1        0.0264
     28 C          63.8247   90.3999   15.3516 C.3     1  UNL1        0.0003
     29 C          64.7893   90.9363   14.3358 C.3     1  UNL1        0.0044
     30 C          66.2640   90.8965   14.6076 C.3     1  UNL1        0.0003
@<TRIPOS>BOND
     1    28    29    1
     2    29    30    1
     3    29    27    1
     4    27     1    1
     5     1     2   ar
     6     2     3   ar
     7     3     4   ar
     8     4     7    1
     9     7     8   ar
    10     8     9   ar
    11     9    10   ar
    12    10    11   ar
    13     4     5   ar
    14     5    12    1
    15    12    13   am
    16    13    14    2
    17    13    16    1
    18    16    17   ar
    19    17    18   ar
    20    18    19   ar
    21    19    21    1
    22    21    22   ar
    23    22    23   ar
    24    23    24   ar
    25    24    25   ar
    26    25    26   ar
    27    19    20   ar
    28     5     6   ar
    29     6     1   ar
    30    11     7   ar
    31    20    16   ar
    32    26    21   ar
    33    12    15    1
@<TRIPOS>MOLECULE
*****
 30 33 0 0 0
SMALL
GASTEIGER

@<TRIPOS>ATOM
      1 C          59.2482   88.6519    7.4836 C.ar    1  UNL1       -0.0209
      2 C          58.8962   87.2865    7.9950 C.ar    1  UNL1       -0.0027
      3 C          59.7479   86.6361    9.0446 C.ar    1  UNL1        0.0185
      4 C          60.9515   87.3513    9.5829 C.ar    1  UNL1        0.0789
      5 C          61.3035   88.7167    9.0715 C.ar    1  UNL1        0.0666
      6 C          60.4518   89.3671    8.0219 C.ar    1  UNL1        0.0119
      7 N          61.8032   86.7009   10.6325 N.ar    1  UNL1       -0.2852
      8 C          62.2702   85.2755   10.6304 C.ar    1  UNL1        0.1023
      9 C          63.0931   85.0554   11.8651 C.ar    1  UNL1        0.1196
     10 N          63.1346   86.3449   12.6304 N.ar    1  UNL1       -0.2220
     11 C          62.3375   87.3619   11.8686 C.ar    1  UNL1        0.1829
     12 N          62.5072   89.4320    9.6098 N.am    1  UNL1       -0.2788
     13 C          62.3401   90.5174   10.6314 C.2     1  UNL1        0.2571
     14 O          60.9692   90.8877   11.1149 O.2     1  UNL1       -0.2692
     15 H          63.4069   89.1889    9.2925 H       1  UNL1        0.1552
     16 C          63.5438   91.2326   11.1697 C.ar    1  UNL1        0.1035
     17 C          64.3909   92.2189   10.4216 C.ar    1  UNL1        0.1105
     18 N          65.4823   92.6830   11.3400 N.ar    1  UNL1       -0.2366
     19 C          65.3097   91.9835   12.6557 C.ar    1  UNL1        0.1109
     20 S          64.1116   91.0871   12.5504 S.2     1  UNL1       -0.0619
     21 C          66.1819   92.1509   13.8644 C.ar    1  UNL1        0.0238
     22 C          65.5617   92.3685   15.2127 C.ar    1  UNL1        0.0020
     23 C          66.4339   92.5359   16.4214 C.ar    1  UNL1        0.0001
     24 C          67.9266   92.4858   16.2819 C.ar    1  UNL1        0.0000
     25 C          68.5470   92.2683   14.9336 C.ar    1  UNL1        0.0001
     26 C          67.6746   92.1008   13.7249 C.ar    1  UNL1        0.0020
     27 C          58.3965   89.3023    6.4340 C.3     1  UNL1        0.0264
     28 C          60.3882   90.5298    5.3043 C.3     1  UNL1        0.0003
     29 C          58.9299   90.4639    5.6492 C.3     1  UNL1        0.0044
     30 C          58.0049   91.5598    5.2092 C.3     1  UNL1        0.0003
@<TRIPOS>BOND
     1    28    29    1
     2    29    30    1
     3    29    27    1
     4    27     1    1
     5     1     2   ar
     6     2     3   ar
     7     3     4   ar
     8     4     7    1
     9     7     8   ar
    10     8     9   ar
    11     9    10   ar
    12    10    11   ar
    13     4     5   ar
    14     5    12    1
    15    12    13   am
    16    13    14    2
    17    13    16    1
    18    16    17   ar
    19    17    18   ar
    20    18    19   ar
    21    19    21    1
    22    21    22   ar
    23    22    23   ar
    24    23    24   ar
    25    24    25   ar
    26    25    26   ar
    27    19    20   ar
    28     5     6   ar
    29     6     1   ar
    30    11     7   ar
    31    20    16   ar
    32    26    21   ar
    33    12    15    1
@<TRIPOS>MOLECULE
*****
 30 33 0 0 0
SMALL
GASTEIGER

@<TRIPOS>ATOM
      1 C          61.9634   85.8536    8.3696 C.ar    1  UNL1       -0.0209
      2 C          60.5856   86.2998    7.9792 C.ar    1  UNL1       -0.0027
      3 C          59.8721   87.3343    8.7982 C.ar    1  UNL1        0.0185
      4 C          60.5363   87.9225   10.0076 C.ar    1  UNL1        0.0789
      5 C          61.9141   87.4763   10.3980 C.ar    1  UNL1        0.0666
      6 C          62.6277   86.4418    9.5790 C.ar    1  UNL1        0.0119
      7 N          59.8228   88.9570   10.8266 N.ar    1  UNL1       -0.2852
      8 C          59.1242   88.7196   12.1325 C.ar    1  UNL1        0.1023
      9 C          58.5522   90.0264   12.5965 C.ar    1  UNL1        0.1196
     10 N          58.8973   91.0714   11.5772 N.ar    1  UNL1       -0.2220
     11 C          59.6826   90.4104   10.4834 C.ar    1  UNL1        0.1829
     12 N          62.5785   88.0645   11.6075 N.am    1  UNL1       -0.2788
     13 C          63.0680   89.4821   11.5793 C.2     1  UNL1        0.2571
     14 O          62.8932   90.3115   10.3418 O.2     1  UNL1       -0.2692
     15 H          62.6932   87.5202   12.4197 H       1  UNL1        0.1552
     16 C          63.7323   90.0703   12.7888 C.ar    1  UNL1        0.1035
     17 C          63.1751   90.0843   14.1814 C.ar    1  UNL1        0.1105
     18 N          64.1689   90.7705   15.0713 N.ar    1  UNL1       -0.2366
     19 C          65.3401   91.1805   14.2286 C.ar    1  UNL1        0.1109
     20 S          65.0703   90.7478   12.8179 S.2     1  UNL1       -0.0619
     21 C          66.5659   91.8974   14.7116 C.ar    1  UNL1        0.0238
     22 C          66.5031   92.7380   15.9524 C.ar    1  UNL1        0.0020
     23 C          67.7289   93.4549   16.4355 C.ar    1  UNL1        0.0001
     24 C          69.0176   93.3311   15.6779 C.ar    1  UNL1        0.0000
     25 C          69.0805   92.4905   14.4371 C.ar    1  UNL1        0.0001
     26 C          67.8546   91.7736   13.9540 C.ar    1  UNL1        0.0020
     27 C          62.6770   84.8191    7.5507 C.3     1  UNL1        0.0264
     28 C          60.8633   83.7721    6.0131 C.3     1  UNL1        0.0003
     29 C          62.1786   84.4740    6.1787 C.3     1  UNL1        0.0044
     30 C          62.9954   84.8307    4.9722 C.3     1  UNL1        0.0003
@<TRIPOS>BOND
     1    28    29    1
     2    29    30    1
     3    29    27    1
     4    27     1    1
     5     1     2   ar
     6     2     3   ar
     7     3     4   ar
     8     4     7    1
     9     7     8   ar
    10     8     9   ar
    11     9    10   ar
    12    10    11   ar
    13     4     5   ar
    14     5    12    1
    15    12    13   am
    16    13    14    2
    17    13    16    1
    18    16    17   ar
    19    17    18   ar
    20    18    19   ar
    21    19    21    1
    22    21    22   ar
    23    22    23   ar
    24    23    24   ar
    25    24    25   ar
    26    25    26   ar
    27    19    20   ar
    28     5     6   ar
    29     6     1   ar
    30    11     7   ar
    31    20    16   ar
    32    26    21   ar
    33    12    15    1
@<TRIPOS>MOLECULE
*****
 30 33 0 0 0
SMALL
GASTEIGER

@<TRIPOS>ATOM
      1 C          61.7639   86.2970    9.5277 C.ar    1  UNL1       -0.0209
      2 C          61.6176   84.8379    9.8431 C.ar    1  UNL1       -0.0027
      3 C          62.1030   84.3024   11.1575 C.ar    1  UNL1        0.0185
      4 C          62.7348   85.2259   12.1564 C.ar    1  UNL1        0.0789
      5 C          62.8811   86.6851   11.8409 C.ar    1  UNL1        0.0666
      6 C          62.3957   87.2206   10.5266 C.ar    1  UNL1        0.0119
      7 N          63.2202   84.6904   13.4708 N.ar    1  UNL1       -0.2852
      8 C          62.3719   84.4078   14.6752 C.ar    1  UNL1        0.1023
      9 C          63.2666   83.8862   15.7603 C.ar    1  UNL1        0.1196
     10 N          64.6678   83.8464   15.2265 N.ar    1  UNL1       -0.2220
     11 C          64.6392   84.3434   13.8115 C.ar    1  UNL1        0.1829
     12 N          63.5129   87.6087   12.8399 N.am    1  UNL1       -0.2788
     13 C          63.1185   89.0554   12.8779 C.2     1  UNL1        0.2571
     14 O          62.0923   89.5785   11.9170 O.2     1  UNL1       -0.2692
     15 H          64.1864   87.2654   13.4705 H       1  UNL1        0.1552
     16 C          63.7503   89.9790   13.8768 C.ar    1  UNL1        0.1035
     17 C          63.1443   90.4199   15.1763 C.ar    1  UNL1        0.1105
     18 N          64.1184   91.3373   15.8543 N.ar    1  UNL1       -0.2366
     19 C          65.3263   91.4634   14.9738 C.ar    1  UNL1        0.1109
     20 S          65.0988   90.6239   13.7517 S.2     1  UNL1       -0.0619
     21 C          66.5473   92.2846   15.2644 C.ar    1  UNL1        0.0238
     22 C          66.6617   93.6774   14.7192 C.ar    1  UNL1        0.0020
     23 C          67.8827   94.4987   15.0098 C.ar    1  UNL1        0.0001
     24 C          68.9895   93.9273   15.8456 C.ar    1  UNL1        0.0000
     25 C          68.8752   92.5345   16.3909 C.ar    1  UNL1        0.0001
     26 C          67.6541   91.7132   16.1002 C.ar    1  UNL1        0.0020
     27 C          61.2785   86.8326    8.2133 C.3     1  UNL1        0.0264
     28 C          58.7122   86.8763    7.8106 C.3     1  UNL1        0.0003
     29 C          59.9872   87.5927    8.1440 C.3     1  UNL1        0.0044
     30 C          59.9710   89.0692    8.4080 C.3     1  UNL1        0.0003
@<TRIPOS>BOND
     1    28    29    1
     2    29    30    1
     3    29    27    1
     4    27     1    1
     5     1     2   ar
     6     2     3   ar
     7     3     4   ar
     8     4     7    1
     9     7     8   ar
    10     8     9   ar
    11     9    10   ar
    12    10    11   ar
    13     4     5   ar
    14     5    12    1
    15    12    13   am
    16    13    14    2
    17    13    16    1
    18    16    17   ar
    19    17    18   ar
    20    18    19   ar
    21    19    21    1
    22    21    22   ar
    23    22    23   ar
    24    23    24   ar
    25    24    25   ar
    26    25    26   ar
    27    19    20   ar
    28     5     6   ar
    29     6     1   ar
    30    11     7   ar
    31    20    16   ar
    32    26    21   ar
    33    12    15    1
