@<TRIPOS>MOLECULE
*****
 17 19 0 0 0
SMALL
GASTEIGER

@<TRIPOS>ATOM
      1 O          66.0510   92.0983   15.3434 O.2     1  UNL1       -0.2957
      2 C          65.2064   91.2396   14.4493 C.2     1  UNL1        0.1553
      3 C          64.7856   89.8727   14.9013 C.3     1  UNL1        0.0695
      4 C          63.9410   89.0140   14.0072 C.3     1  UNL1        0.0338
      5 C          63.5173   89.5223   12.6611 C.ar    1  UNL1       -0.0253
      6 C          62.6728   88.6636   11.7670 C.ar    1  UNL1       -0.0045
      7 C          62.2490   89.1719   10.4209 C.ar    1  UNL1        0.0012
      8 C          62.6698   90.5389    9.9688 C.ar    1  UNL1       -0.0003
      9 C          63.5144   91.3976   10.8629 C.ar    1  UNL1       -0.0042
     10 C          63.9381   90.8892   12.2091 C.ar    1  UNL1       -0.0188
     11 C          64.7827   91.7479   13.1032 C.3     1  UNL1        0.0904
     12 C          61.4045   88.3132    9.5268 C.ar    1  UNL1        0.0192
     13 C          61.7996   86.8906    9.2615 C.ar    1  UNL1        0.0031
     14 C          60.9551   86.0320    8.3674 C.ar    1  UNL1        0.0207
     15 C          59.7154   86.5959    7.7386 C.ar    1  UNL1        0.0989
     16 N          59.3203   88.0183    8.0039 N.ar    1  UNL1       -0.2423
     17 C          60.1649   88.8770    8.8980 C.ar    1  UNL1        0.0988
@<TRIPOS>BOND
     1     1     2    2
     2     2     3    1
     3     3     4    1
     4     4     5    1
     5     5     6   ar
     6     6     7   ar
     7     7    12    1
     8    12    13   ar
     9    13    14   ar
    10    14    15   ar
    11    15    16   ar
    12    16    17   ar
    13     7     8   ar
    14     8     9   ar
    15     9    10   ar
    16    10    11    1
    17    11     2    1
    18    10     5   ar
    19    17    12   ar
@<TRIPOS>MOLECULE
*****
 17 19 0 0 0
SMALL
GASTEIGER

@<TRIPOS>ATOM
      1 O          64.0044   91.7523   13.0880 O.2     1  UNL1       -0.2957
      2 C          63.9148   90.2637   13.2496 C.2     1  UNL1        0.1553
      3 C          64.5360   89.6001   14.4428 C.3     1  UNL1        0.0695
      4 C          64.4463   88.1116   14.6044 C.3     1  UNL1        0.0338
      5 C          63.7356   87.2866   13.5729 C.ar    1  UNL1       -0.0253
      6 C          63.6460   85.7980   13.7345 C.ar    1  UNL1       -0.0045
      7 C          62.9352   84.9730   12.7029 C.ar    1  UNL1        0.0012
      8 C          62.3140   85.6366   11.5096 C.ar    1  UNL1       -0.0003
      9 C          62.4036   87.1252   11.3480 C.ar    1  UNL1       -0.0042
     10 C          63.1144   87.9502   12.3797 C.ar    1  UNL1       -0.0188
     11 C          63.2040   89.4388   12.2181 C.3     1  UNL1        0.0904
     12 C          62.8456   83.4845   12.8645 C.ar    1  UNL1        0.0192
     13 C          62.9729   82.5910   11.6664 C.ar    1  UNL1        0.0031
     14 C          62.8833   81.1024   11.8280 C.ar    1  UNL1        0.0207
     15 C          62.6664   80.5073   13.1878 C.ar    1  UNL1        0.0989
     16 N          62.5391   81.4008   14.3858 N.ar    1  UNL1       -0.2423
     17 C          62.6287   82.8894   14.2242 C.ar    1  UNL1        0.0988
@<TRIPOS>BOND
     1     1     2    2
     2     2     3    1
     3     3     4    1
     4     4     5    1
     5     5     6   ar
     6     6     7   ar
     7     7    12    1
     8    12    13   ar
     9    13    14   ar
    10    14    15   ar
    11    15    16   ar
    12    16    17   ar
    13     7     8   ar
    14     8     9   ar
    15     9    10   ar
    16    10    11    1
    17    11     2    1
    18    10     5   ar
    19    17    12   ar
@<TRIPOS>MOLECULE
*****
 17 19 0 0 0
SMALL
GASTEIGER

@<TRIPOS>ATOM
      1 O          64.1522   91.9732   13.4366 O.2     1  UNL1       -0.2957
      2 C          63.8863   90.5155   13.2035 C.2     1  UNL1        0.1553
      3 C          63.1387   90.0758   11.9797 C.3     1  UNL1        0.0695
      4 C          62.8729   88.6181   11.7466 C.3     1  UNL1        0.0338
      5 C          63.3546   87.6000   12.7372 C.ar    1  UNL1       -0.0253
      6 C          63.0887   86.1423   12.5041 C.ar    1  UNL1       -0.0045
      7 C          63.5704   85.1243   13.4948 C.ar    1  UNL1        0.0012
      8 C          64.3181   85.5639   14.7187 C.ar    1  UNL1       -0.0003
      9 C          64.5839   87.0216   14.9518 C.ar    1  UNL1       -0.0042
     10 C          64.1022   88.0397   13.9610 C.ar    1  UNL1       -0.0188
     11 C          64.3681   89.4974   14.1942 C.3     1  UNL1        0.0904
     12 C          63.3045   83.6665   13.2616 C.ar    1  UNL1        0.0192
     13 C          63.0781   83.1589   11.8684 C.ar    1  UNL1        0.0031
     14 C          62.8123   81.7012   11.6352 C.ar    1  UNL1        0.0207
     15 C          62.7728   80.7511   12.7954 C.ar    1  UNL1        0.0989
     16 N          62.9992   81.2587   14.1886 N.ar    1  UNL1       -0.2423
     17 C          63.2650   82.7165   14.4217 C.ar    1  UNL1        0.0988
@<TRIPOS>BOND
     1     1     2    2
     2     2     3    1
     3     3     4    1
     4     4     5    1
     5     5     6   ar
     6     6     7   ar
     7     7    12    1
     8    12    13   ar
     9    13    14   ar
    10    14    15   ar
    11    15    16   ar
    12    16    17   ar
    13     7     8   ar
    14     8     9   ar
    15     9    10   ar
    16    10    11    1
    17    11     2    1
    18    10     5   ar
    19    17    12   ar
@<TRIPOS>MOLECULE
*****
 17 19 0 0 0
SMALL
GASTEIGER

@<TRIPOS>ATOM
      1 O          67.0372   93.8705   14.0222 O.2     1  UNL1       -0.2957
      2 C          66.1208   93.1038   13.1153 C.2     1  UNL1        0.1553
      3 C          65.8767   93.5840   11.7154 C.3     1  UNL1        0.0695
      4 C          64.9604   92.8172   10.8085 C.3     1  UNL1        0.0338
      5 C          64.2882   91.5703   11.3015 C.ar    1  UNL1       -0.0253
      6 C          63.3718   90.8035   10.3946 C.ar    1  UNL1       -0.0045
      7 C          62.6996   89.5565   10.8876 C.ar    1  UNL1        0.0012
      8 C          62.9437   89.0762   12.2876 C.ar    1  UNL1       -0.0003
      9 C          63.8601   89.8430   13.1945 C.ar    1  UNL1       -0.0042
     10 C          64.5323   91.0900   12.7014 C.ar    1  UNL1       -0.0188
     11 C          65.4486   91.8568   13.6083 C.3     1  UNL1        0.0904
     12 C          61.7833   88.7898    9.9808 C.ar    1  UNL1        0.0192
     13 C          62.0182   87.3281    9.7386 C.ar    1  UNL1        0.0031
     14 C          61.1019   86.5614    8.8318 C.ar    1  UNL1        0.0207
     15 C          59.9506   87.2563    8.1670 C.ar    1  UNL1        0.0989
     16 N          59.7158   88.7178    8.4091 N.ar    1  UNL1       -0.2423
     17 C          60.6321   89.4846    9.3160 C.ar    1  UNL1        0.0988
@<TRIPOS>BOND
     1     1     2    2
     2     2     3    1
     3     3     4    1
     4     4     5    1
     5     5     6   ar
     6     6     7   ar
     7     7    12    1
     8    12    13   ar
     9    13    14   ar
    10    14    15   ar
    11    15    16   ar
    12    16    17   ar
    13     7     8   ar
    14     8     9   ar
    15     9    10   ar
    16    10    11    1
    17    11     2    1
    18    10     5   ar
    19    17    12   ar
@<TRIPOS>MOLECULE
*****
 17 19 0 0 0
SMALL
GASTEIGER

@<TRIPOS>ATOM
      1 O          67.2153   93.7531   14.7585 O.2     1  UNL1       -0.2957
      2 C          66.2534   92.7640   14.1699 C.2     1  UNL1        0.1553
      3 C          65.7577   91.6158   14.9981 C.3     1  UNL1        0.0695
      4 C          64.7959   90.6267   14.4095 C.3     1  UNL1        0.0338
      5 C          64.3296   90.7858   12.9927 C.ar    1  UNL1       -0.0253
      6 C          63.3677   89.7967   12.4041 C.ar    1  UNL1       -0.0045
      7 C          62.9014   89.9558   10.9874 C.ar    1  UNL1        0.0012
      8 C          63.3971   91.1041   10.1591 C.ar    1  UNL1       -0.0003
      9 C          64.3590   92.0932   10.7477 C.ar    1  UNL1       -0.0042
     10 C          64.8252   91.9340   12.1646 C.ar    1  UNL1       -0.0188
     11 C          65.7871   92.9231   12.7532 C.3     1  UNL1        0.0904
     12 C          61.9395   88.9667   10.3988 C.ar    1  UNL1        0.0192
     13 C          60.8849   89.4274    9.4367 C.ar    1  UNL1        0.0031
     14 C          59.9230   88.4383    8.8481 C.ar    1  UNL1        0.0207
     15 C          60.0158   86.9885    9.2216 C.ar    1  UNL1        0.0989
     16 N          61.0703   86.5278   10.1837 N.ar    1  UNL1       -0.2423
     17 C          62.0322   87.5169   10.7723 C.ar    1  UNL1        0.0988
@<TRIPOS>BOND
     1     1     2    2
     2     2     3    1
     3     3     4    1
     4     4     5    1
     5     5     6   ar
     6     6     7   ar
     7     7    12    1
     8    12    13   ar
     9    13    14   ar
    10    14    15   ar
    11    15    16   ar
    12    16    17   ar
    13     7     8   ar
    14     8     9   ar
    15     9    10   ar
    16    10    11    1
    17    11     2    1
    18    10     5   ar
    19    17    12   ar
@<TRIPOS>MOLECULE
*****
 17 19 0 0 0
SMALL
GASTEIGER

@<TRIPOS>ATOM
      1 O          66.4660   95.0939   11.2714 O.2     1  UNL1       -0.2957
      2 C          66.1291   93.9456   12.1759 C.2     1  UNL1        0.1553
      3 C          66.7134   93.8814   13.5559 C.3     1  UNL1        0.0695
      4 C          66.3764   92.7331   14.4603 C.3     1  UNL1        0.0338
      5 C          65.4551   91.6492   13.9848 C.ar    1  UNL1       -0.0253
      6 C          65.1181   90.5010   14.8892 C.ar    1  UNL1       -0.0045
      7 C          64.1968   89.4170   14.4137 C.ar    1  UNL1        0.0012
      8 C          63.6124   89.4812   13.0336 C.ar    1  UNL1       -0.0003
      9 C          63.9494   90.6294   12.1292 C.ar    1  UNL1       -0.0042
     10 C          64.8708   91.7134   12.6048 C.ar    1  UNL1       -0.0188
     11 C          65.2078   92.8617   11.7003 C.3     1  UNL1        0.0904
     12 C          63.8598   88.2688   15.3181 C.ar    1  UNL1        0.0192
     13 C          63.1143   88.5146   16.5964 C.ar    1  UNL1        0.0031
     14 C          62.7774   87.3664   17.5008 C.ar    1  UNL1        0.0207
     15 C          63.1858   85.9723   17.1270 C.ar    1  UNL1        0.0989
     16 N          63.9313   85.7265   15.8488 N.ar    1  UNL1       -0.2423
     17 C          64.2682   86.8747   14.9444 C.ar    1  UNL1        0.0988
@<TRIPOS>BOND
     1     1     2    2
     2     2     3    1
     3     3     4    1
     4     4     5    1
     5     5     6   ar
     6     6     7   ar
     7     7    12    1
     8    12    13   ar
     9    13    14   ar
    10    14    15   ar
    11    15    16   ar
    12    16    17   ar
    13     7     8   ar
    14     8     9   ar
    15     9    10   ar
    16    10    11    1
    17    11     2    1
    18    10     5   ar
    19    17    12   ar
@<TRIPOS>MOLECULE
*****
 17 19 0 0 0
SMALL
GASTEIGER

@<TRIPOS>ATOM
      1 O          59.0274   89.8866    6.7385 O.2     1  UNL1       -0.2957
      2 C          59.6227   88.8409    7.6341 C.2     1  UNL1        0.1553
      3 C          59.3065   87.3921    7.4089 C.3     1  UNL1        0.0695
      4 C          59.9018   86.3464    8.3045 C.3     1  UNL1        0.0338
      5 C          60.8134   86.7496    9.4254 C.ar    1  UNL1       -0.0253
      6 C          61.4088   85.7039   10.3210 C.ar    1  UNL1       -0.0045
      7 C          62.3204   86.1071   11.4418 C.ar    1  UNL1        0.0012
      8 C          62.6367   87.5560   11.6671 C.ar    1  UNL1       -0.0003
      9 C          62.0414   88.6017   10.7715 C.ar    1  UNL1       -0.0042
     10 C          61.1297   88.1984    9.6506 C.ar    1  UNL1       -0.0188
     11 C          60.5344   89.2441    8.7550 C.3     1  UNL1        0.0904
     12 C          62.9158   85.0614   12.3374 C.ar    1  UNL1        0.0192
     13 C          62.7881   83.6094   11.9831 C.ar    1  UNL1        0.0031
     14 C          63.3835   82.5638   12.8788 C.ar    1  UNL1        0.0207
     15 C          64.1065   82.9701   14.1287 C.ar    1  UNL1        0.0989
     16 N          64.2341   84.4221   14.4829 N.ar    1  UNL1       -0.2423
     17 C          63.6387   85.4677   13.5873 C.ar    1  UNL1        0.0988
@<TRIPOS>BOND
     1     1     2    2
     2     2     3    1
     3     3     4    1
     4     4     5    1
     5     5     6   ar
     6     6     7   ar
     7     7    12    1
     8    12    13   ar
     9    13    14   ar
    10    14    15   ar
    11    15    16   ar
    12    16    17   ar
    13     7     8   ar
    14     8     9   ar
    15     9    10   ar
    16    10    11    1
    17    11     2    1
    18    10     5   ar
    19    17    12   ar
@<TRIPOS>MOLECULE
*****
 17 19 0 0 0
SMALL
GASTEIGER

@<TRIPOS>ATOM
      1 O          59.8611   86.0830    8.0576 O.2     1  UNL1       -0.2957
      2 C          60.6838   86.7701    9.1069 C.2     1  UNL1        0.1553
      3 C          61.2628   85.9797   10.2427 C.3     1  UNL1        0.0695
      4 C          62.0855   86.6669   11.2920 C.3     1  UNL1        0.0338
      5 C          62.3291   88.1444   11.2055 C.ar    1  UNL1       -0.0253
      6 C          63.1518   88.8315   12.2548 C.ar    1  UNL1       -0.0045
      7 C          63.3955   90.3090   12.1684 C.ar    1  UNL1        0.0012
      8 C          62.8164   91.0995   11.0326 C.ar    1  UNL1       -0.0003
      9 C          61.9937   90.4124    9.9833 C.ar    1  UNL1       -0.0042
     10 C          61.7501   88.9348   10.0698 C.ar    1  UNL1       -0.0188
     11 C          60.9274   88.2476    9.0205 C.3     1  UNL1        0.0904
     12 C          64.2182   90.9962   13.2177 C.ar    1  UNL1        0.0192
     13 C          65.4030   91.8248   12.8182 C.ar    1  UNL1        0.0031
     14 C          66.2257   92.5119   13.8675 C.ar    1  UNL1        0.0207
     15 C          65.8635   92.3704   15.3163 C.ar    1  UNL1        0.0989
     16 N          64.6787   91.5418   15.7157 N.ar    1  UNL1       -0.2423
     17 C          63.8560   90.8547   14.6664 C.ar    1  UNL1        0.0988
@<TRIPOS>BOND
     1     1     2    2
     2     2     3    1
     3     3     4    1
     4     4     5    1
     5     5     6   ar
     6     6     7   ar
     7     7    12    1
     8    12    13   ar
     9    13    14   ar
    10    14    15   ar
    11    15    16   ar
    12    16    17   ar
    13     7     8   ar
    14     8     9   ar
    15     9    10   ar
    16    10    11    1
    17    11     2    1
    18    10     5   ar
    19    17    12   ar
@<TRIPOS>MOLECULE
*****
 17 19 0 0 0
SMALL
GASTEIGER

@<TRIPOS>ATOM
      1 O          64.5458   80.6813   14.1857 O.2     1  UNL1       -0.2957
      2 C          63.8838   81.8677   13.5500 C.2     1  UNL1        0.1553
      3 C          63.0136   82.7711   14.3726 C.3     1  UNL1        0.0695
      4 C          62.3516   83.9576   13.7369 C.3     1  UNL1        0.0338
      5 C          62.5598   84.2406   12.2787 C.ar    1  UNL1       -0.0253
      6 C          61.8978   85.4271   11.6430 C.ar    1  UNL1       -0.0045
      7 C          62.1059   85.7101   10.1848 C.ar    1  UNL1        0.0012
      8 C          62.9761   84.8067    9.3621 C.ar    1  UNL1       -0.0003
      9 C          63.6381   83.6203    9.9978 C.ar    1  UNL1       -0.0042
     10 C          63.4299   83.3372   11.4561 C.ar    1  UNL1       -0.0188
     11 C          64.0920   82.1508   12.0918 C.3     1  UNL1        0.0904
     12 C          61.4439   86.8966    9.5491 C.ar    1  UNL1        0.0192
     13 C          60.4201   86.6960    8.4712 C.ar    1  UNL1        0.0031
     14 C          59.7581   87.8825    7.8355 C.ar    1  UNL1        0.0207
     15 C          60.1199   89.2694    8.2778 C.ar    1  UNL1        0.0989
     16 N          61.1435   89.4699    9.3556 N.ar    1  UNL1       -0.2423
     17 C          61.8056   88.2835    9.9913 C.ar    1  UNL1        0.0988
@<TRIPOS>BOND
     1     1     2    2
     2     2     3    1
     3     3     4    1
     4     4     5    1
     5     5     6   ar
     6     6     7   ar
     7     7    12    1
     8    12    13   ar
     9    13    14   ar
    10    14    15   ar
    11    15    16   ar
    12    16    17   ar
    13     7     8   ar
    14     8     9   ar
    15     9    10   ar
    16    10    11    1
    17    11     2    1
    18    10     5   ar
    19    17    12   ar
