@<TRIPOS>MOLECULE
*****
 37 41 0 0 0
SMALL
GASTEIGER

@<TRIPOS>ATOM
      1 C          63.2648   84.8532   13.1752 C.3     1  UNL1        0.3254
      2 F          64.4695   84.6378   12.3078 F       1  UNL1       -0.1949
      3 F          61.9151   85.1970   13.7323 F       1  UNL1       -0.1949
      4 C          61.0240   86.5236    9.6483 C.ar    1  UNL1        0.0889
      5 C          61.9976   85.3992    9.4541 C.ar    1  UNL1        0.0207
      6 C          62.7445   84.8424   10.6297 C.ar    1  UNL1        0.0217
      7 C          62.5178   85.4101   11.9995 C.ar    1  UNL1        0.1219
      8 N          61.5442   86.5345   12.1937 N.ar    1  UNL1       -0.2412
      9 C          60.7973   87.0912   11.0181 C.ar    1  UNL1        0.1163
     10 O          60.9422   89.6559    8.7364 O.2     1  UNL1       -0.2444
     11 C          60.2394   88.5202    8.0535 C.ar    1  UNL1        0.3523
     12 N          60.2770   87.0804    8.4727 N.ar    1  UNL1       -0.2382
     13 C          59.4366   86.2953    7.5098 C.ar    1  UNL1        0.2073
     14 N          58.8795   87.2497    6.4956 N.ar    1  UNL1       -0.1442
     15 N          59.3757   88.6249    6.8317 N.ar    1  UNL1       -0.2024
     16 C          59.0631   89.8836    6.0781 C.3     1  UNL1        0.1099
     17 C          57.6956   90.4525    5.8407 C.3     1  UNL1        0.0245
     18 C          57.8505   91.7149    5.0455 C.3     1  UNL1        0.0021
     19 C          59.3136   91.9262    4.7915 C.3     1  UNL1        0.0021
     20 C          60.0631   90.7944    5.4297 C.3     1  UNL1        0.0245
     21 C          64.0117   84.2965   14.3508 C.3     1  UNL1        0.1932
     22 O          64.7587   83.7396   15.5264 O.3     1  UNL1       -0.3755
     23 H          65.0407   82.8325   15.3301 H       1  UNL1        0.2110
     24 C          63.8132   85.5874   15.0883 C.ar    1  UNL1        0.0368
     25 C          64.4143   86.8548   14.5570 C.ar    1  UNL1        0.0028
     26 C          64.2157   88.1458   15.2946 C.ar    1  UNL1        0.0295
     27 C          63.4162   88.1694   16.5634 C.ar    1  UNL1        0.1424
     28 F          63.2176   89.4604   17.3010 F       1  UNL1       -0.2041
     29 C          62.8151   86.9019   17.0948 C.ar    1  UNL1        0.0590
     30 C          63.0136   85.6110   16.3572 C.ar    1  UNL1        0.1408
     31 F          62.4125   84.3435   16.8886 F       1  UNL1       -0.2043
     32 C          64.2102   83.0055   13.6132 C.3     1  UNL1        0.1679
     33 N          63.1581   81.9380   13.6732 N.ar    1  UNL1       -0.2078
     34 C          63.0826   80.7242   12.7951 C.ar    1  UNL1        0.2216
     35 N          61.8746   79.9329   13.2010 N.ar    1  UNL1       -0.1048
     36 N          61.2037   80.6576   14.3300 N.ar    1  UNL1       -0.0226
     37 N          61.9969   81.8968   14.6218 N.ar    1  UNL1       -0.0428
@<TRIPOS>BOND
     1    10    11    2
     2    11    12   ar
     3    12     4    1
     4     4     5   ar
     5     5     6   ar
     6     6     7   ar
     7     7     1    1
     8     1     2    1
     9     1     3    1
    10     1    21    1
    11    21    22    1
    12    21    32    1
    13    32    33    1
    14    33    34   ar
    15    34    35   ar
    16    35    36   ar
    17    36    37   ar
    18    21    24    1
    19    24    25   ar
    20    25    26   ar
    21    26    27   ar
    22    27    28    1
    23    27    29   ar
    24    29    30   ar
    25    30    31    1
    26     7     8   ar
    27     8     9   ar
    28    12    13   ar
    29    13    14   ar
    30    14    15   ar
    31    15    16    1
    32    16    17    1
    33    17    18    1
    34    18    19    1
    35    19    20    1
    36    15    11   ar
    37    20    16    1
    38     9     4   ar
    39    37    33   ar
    40    30    24   ar
    41    22    23    1
@<TRIPOS>MOLECULE
*****
 37 41 0 0 0
SMALL
GASTEIGER

@<TRIPOS>ATOM
      1 C          63.3277   84.7592   12.9916 C.3     1  UNL1        0.3254
      2 F          64.4966   84.5165   12.0836 F       1  UNL1       -0.1949
      3 F          62.0075   85.1370   13.5954 F       1  UNL1       -0.1949
      4 C          61.0224   86.5225    9.5527 C.ar    1  UNL1        0.0889
      5 C          61.9981   85.4095    9.3093 C.ar    1  UNL1        0.0207
      6 C          62.7665   84.8217   10.4556 C.ar    1  UNL1        0.0217
      7 C          62.5592   85.3470   11.8453 C.ar    1  UNL1        0.1219
      8 N          61.5835   86.4600   12.0886 N.ar    1  UNL1       -0.2412
      9 C          60.8151   87.0477   10.9423 C.ar    1  UNL1        0.1163
     10 O          61.0545   89.6512    8.6254 O.2     1  UNL1       -0.2444
     11 C          60.2687   88.5484    7.9801 C.ar    1  UNL1        0.3523
     12 N          60.2539   87.1103    8.4063 N.ar    1  UNL1       -0.2382
     13 C          59.3358   86.3632    7.4850 C.ar    1  UNL1        0.2073
     14 N          58.7831   87.3395    6.4894 N.ar    1  UNL1       -0.1442
     15 N          59.3597   88.6901    6.7954 N.ar    1  UNL1       -0.2024
     16 C          59.0769   89.9595    6.0479 C.3     1  UNL1        0.1099
     17 C          57.7229   90.5593    5.8095 C.3     1  UNL1        0.0245
     18 C          57.9077   91.8224    5.0219 C.3     1  UNL1        0.0021
     19 C          59.3758   92.0032    4.7735 C.3     1  UNL1        0.0021
     20 C          60.0985   90.8518    5.4076 C.3     1  UNL1        0.0245
     21 C          64.0961   84.1714   14.1379 C.3     1  UNL1        0.1932
     22 O          64.8645   83.5837   15.2843 O.3     1  UNL1       -0.3755
     23 H          65.4764   84.2481   15.6379 H       1  UNL1        0.2110
     24 C          63.3642   82.8739   13.9632 C.ar    1  UNL1        0.0368
     25 C          62.0717   82.6384   14.6872 C.ar    1  UNL1        0.0028
     26 C          61.3398   81.3407   14.5125 C.ar    1  UNL1        0.0295
     27 C          61.9004   80.2786   13.6138 C.ar    1  UNL1        0.1424
     28 F          61.1684   78.9810   13.4390 F       1  UNL1       -0.2041
     29 C          63.1928   80.5141   12.8898 C.ar    1  UNL1        0.0590
     30 C          63.9247   81.8117   13.0645 C.ar    1  UNL1        0.1408
     31 F          65.2171   82.0472   12.3405 F       1  UNL1       -0.2043
     32 C          64.8280   85.4690   14.3126 C.3     1  UNL1        0.1679
     33 N          64.1917   86.5921   15.0767 N.ar    1  UNL1       -0.2078
     34 C          64.2286   88.0445   14.7035 C.ar    1  UNL1        0.2216
     35 N          63.4664   88.8100   15.7443 N.ar    1  UNL1       -0.1048
     36 N          62.9584   87.8307   16.7607 N.ar    1  UNL1       -0.0226
     37 N          63.4067   86.4600   16.3481 N.ar    1  UNL1       -0.0428
@<TRIPOS>BOND
     1    10    11    2
     2    11    12   ar
     3    12     4    1
     4     4     5   ar
     5     5     6   ar
     6     6     7   ar
     7     7     1    1
     8     1     2    1
     9     1     3    1
    10     1    21    1
    11    21    22    1
    12    21    32    1
    13    32    33    1
    14    33    34   ar
    15    34    35   ar
    16    35    36   ar
    17    36    37   ar
    18    21    24    1
    19    24    25   ar
    20    25    26   ar
    21    26    27   ar
    22    27    28    1
    23    27    29   ar
    24    29    30   ar
    25    30    31    1
    26     7     8   ar
    27     8     9   ar
    28    12    13   ar
    29    13    14   ar
    30    14    15   ar
    31    15    16    1
    32    16    17    1
    33    17    18    1
    34    18    19    1
    35    19    20    1
    36    15    11   ar
    37    20    16    1
    38     9     4   ar
    39    37    33   ar
    40    30    24   ar
    41    22    23    1
@<TRIPOS>MOLECULE
*****
 37 41 0 0 0
SMALL
GASTEIGER

@<TRIPOS>ATOM
      1 C          61.5190   87.6915   10.6564 C.3     1  UNL1        0.3254
      2 F          60.4392   87.5025   11.6803 F       1  UNL1       -0.1949
      3 F          62.7547   88.0773    9.8985 F       1  UNL1       -0.1949
      4 C          63.8490   90.2002   13.5766 C.ar    1  UNL1        0.0889
      5 C          62.9933   90.8604   12.5365 C.ar    1  UNL1        0.0207
      6 C          62.2167   90.0242   11.5631 C.ar    1  UNL1        0.0217
      7 C          62.2957   88.5278   11.6299 C.ar    1  UNL1        0.1219
      8 N          63.1514   87.8676   12.6700 N.ar    1  UNL1       -0.2412
      9 C          63.9281   88.7038   13.6434 C.ar    1  UNL1        0.1163
     10 O          66.9129   91.2528   13.1836 O.2     1  UNL1       -0.2444
     11 C          66.0340   91.5202   14.3694 C.ar    1  UNL1        0.3523
     12 N          64.6257   91.0364   14.5501 N.ar    1  UNL1       -0.2382
     13 C          64.1305   91.5356   15.8750 C.ar    1  UNL1        0.2073
     14 N          65.2327   92.3279   16.5132 N.ar    1  UNL1       -0.1442
     15 N          66.4092   92.3184   15.5827 N.ar    1  UNL1       -0.2024
     16 C          67.7291   92.9893   15.8232 C.3     1  UNL1        0.1099
     17 C          68.0248   94.4473   15.6317 C.3     1  UNL1        0.0245
     18 C          69.4634   94.6791   15.9876 C.3     1  UNL1        0.0021
     19 C          70.0568   93.3643   16.3991 C.3     1  UNL1        0.0021
     20 C          68.9848   92.3199   16.2975 C.3     1  UNL1        0.0245
     21 C          60.7424   86.8554    9.6830 C.3     1  UNL1        0.1932
     22 O          59.9657   86.0192    8.7095 O.3     1  UNL1       -0.3755
     23 H          59.1770   86.5057    8.4226 H       1  UNL1        0.2110
     24 C          61.7613   85.7619    9.8094 C.ar    1  UNL1        0.0368
     25 C          62.0185   85.1270   11.1438 C.ar    1  UNL1        0.0028
     26 C          63.0375   84.0334   11.2702 C.ar    1  UNL1        0.0295
     27 C          63.7992   83.5748   10.0621 C.ar    1  UNL1        0.1424
     28 F          64.8182   82.4813   10.1885 F       1  UNL1       -0.2041
     29 C          63.5419   84.2097    8.7277 C.ar    1  UNL1        0.0590
     30 C          62.5230   85.3032    8.6013 C.ar    1  UNL1        0.1408
     31 F          62.2658   85.9381    7.2668 F       1  UNL1       -0.2043
     32 C          59.7234   87.9489    9.5566 C.3     1  UNL1        0.1679
     33 N          59.5578   88.6727    8.2533 N.ar    1  UNL1       -0.2078
     34 C          60.2611   89.9348    7.8501 C.ar    1  UNL1        0.2216
     35 N          59.7977   90.3036    6.4719 N.ar    1  UNL1       -0.1048
     36 N          58.8081   89.2695    6.0234 N.ar    1  UNL1       -0.0226
     37 N          58.6598   88.2615    7.1243 N.ar    1  UNL1       -0.0428
@<TRIPOS>BOND
     1    10    11    2
     2    11    12   ar
     3    12     4    1
     4     4     5   ar
     5     5     6   ar
     6     6     7   ar
     7     7     1    1
     8     1     2    1
     9     1     3    1
    10     1    21    1
    11    21    22    1
    12    21    32    1
    13    32    33    1
    14    33    34   ar
    15    34    35   ar
    16    35    36   ar
    17    36    37   ar
    18    21    24    1
    19    24    25   ar
    20    25    26   ar
    21    26    27   ar
    22    27    28    1
    23    27    29   ar
    24    29    30   ar
    25    30    31    1
    26     7     8   ar
    27     8     9   ar
    28    12    13   ar
    29    13    14   ar
    30    14    15   ar
    31    15    16    1
    32    16    17    1
    33    17    18    1
    34    18    19    1
    35    19    20    1
    36    15    11   ar
    37    20    16    1
    38     9     4   ar
    39    37    33   ar
    40    30    24   ar
    41    22    23    1
@<TRIPOS>MOLECULE
*****
 37 41 0 0 0
SMALL
GASTEIGER

@<TRIPOS>ATOM
      1 C          62.0372   87.6312   10.6106 C.3     1  UNL1        0.3254
      2 F          62.7500   88.3214    9.4856 F       1  UNL1       -0.1949
      3 F          61.5230   87.1685   11.9416 F       1  UNL1       -0.1949
      4 C          64.2377   90.1983   13.5801 C.ar    1  UNL1        0.0889
      5 C          63.6893   90.8071   12.3237 C.ar    1  UNL1        0.0207
      6 C          62.9558   89.9514   11.3339 C.ar    1  UNL1        0.0217
      7 C          62.7707   88.4869   11.6005 C.ar    1  UNL1        0.1219
      8 N          63.3191   87.8781   12.8569 N.ar    1  UNL1       -0.2412
      9 C          64.0526   88.7338   13.8467 C.ar    1  UNL1        0.1163
     10 O          67.2770   91.3394   13.2482 O.2     1  UNL1       -0.2444
     11 C          66.3682   91.5785   14.4174 C.ar    1  UNL1        0.3523
     12 N          64.9712   91.0540   14.5699 N.ar    1  UNL1       -0.2382
     13 C          64.4365   91.5354   15.8861 C.ar    1  UNL1        0.2073
     14 N          65.5030   92.3574   16.5470 N.ar    1  UNL1       -0.1442
     15 N          66.6969   92.3841   15.6393 N.ar    1  UNL1       -0.2024
     16 C          67.9921   93.0920   15.9065 C.3     1  UNL1        0.1099
     17 C          69.2602   92.4560   16.3936 C.3     1  UNL1        0.0245
     18 C          70.2984   93.5311   16.5217 C.3     1  UNL1        0.0021
     19 C          69.6718   94.8315   16.1137 C.3     1  UNL1        0.0021
     20 C          68.2464   94.5600   15.7335 C.3     1  UNL1        0.0245
     21 C          61.3037   86.7755    9.6208 C.3     1  UNL1        0.1932
     22 O          60.5701   85.9198    8.6309 O.3     1  UNL1       -0.3755
     23 H          59.9151   86.4588    8.1605 H       1  UNL1        0.2110
     24 C          62.1188   85.5891   10.0424 C.ar    1  UNL1        0.0368
     25 C          61.9175   84.9853   11.4007 C.ar    1  UNL1        0.0028
     26 C          62.7327   83.7987   11.8223 C.ar    1  UNL1        0.0295
     27 C          63.7491   83.2160   10.8857 C.ar    1  UNL1        0.1424
     28 F          64.5643   82.0295   11.3073 F       1  UNL1       -0.2041
     29 C          63.9504   83.8198    9.5274 C.ar    1  UNL1        0.0590
     30 C          63.1353   85.0063    9.1058 C.ar    1  UNL1        0.1408
     31 F          63.3366   85.6101    7.7475 F       1  UNL1       -0.2043
     32 C          60.4886   87.9620    9.1991 C.3     1  UNL1        0.1679
     33 N          59.8913   88.8679   10.2348 N.ar    1  UNL1       -0.2078
     34 C          59.8780   90.3673   10.1925 C.ar    1  UNL1        0.2216
     35 N          59.1809   90.8595   11.4262 N.ar    1  UNL1       -0.1048
     36 N          58.7634   89.6644   12.2308 N.ar    1  UNL1       -0.0226
     37 N          59.2025   88.4336   11.4945 N.ar    1  UNL1       -0.0428
@<TRIPOS>BOND
     1    10    11    2
     2    11    12   ar
     3    12     4    1
     4     4     5   ar
     5     5     6   ar
     6     6     7   ar
     7     7     1    1
     8     1     2    1
     9     1     3    1
    10     1    21    1
    11    21    22    1
    12    21    32    1
    13    32    33    1
    14    33    34   ar
    15    34    35   ar
    16    35    36   ar
    17    36    37   ar
    18    21    24    1
    19    24    25   ar
    20    25    26   ar
    21    26    27   ar
    22    27    28    1
    23    27    29   ar
    24    29    30   ar
    25    30    31    1
    26     7     8   ar
    27     8     9   ar
    28    12    13   ar
    29    13    14   ar
    30    14    15   ar
    31    15    16    1
    32    16    17    1
    33    17    18    1
    34    18    19    1
    35    19    20    1
    36    15    11   ar
    37    20    16    1
    38     9     4   ar
    39    37    33   ar
    40    30    24   ar
    41    22    23    1
@<TRIPOS>MOLECULE
*****
 37 41 0 0 0
SMALL
GASTEIGER

@<TRIPOS>ATOM
      1 C          65.3321   92.5131   12.2870 C.3     1  UNL1        0.3254
      2 F          65.6666   92.4451   10.8264 F       1  UNL1       -0.1949
      3 F          64.8482   92.2536   13.6830 F       1  UNL1       -0.1949
      4 C          63.3584   88.4777   12.0229 C.ar    1  UNL1        0.0889
      5 C          63.2961   89.4207   10.8580 C.ar    1  UNL1        0.0207
      6 C          63.9540   90.7658   10.9461 C.ar    1  UNL1        0.0217
      7 C          64.6741   91.1679   12.1990 C.ar    1  UNL1        0.1219
      8 N          64.7364   90.2250   13.3638 N.ar    1  UNL1       -0.2412
      9 C          64.0785   88.8798   13.2757 C.ar    1  UNL1        0.1163
     10 O          64.2569   85.7930   13.6460 O.2     1  UNL1       -0.2444
     11 C          63.1135   85.8985   12.6810 C.ar    1  UNL1        0.3523
     12 N          62.7004   87.1325   11.9349 N.ar    1  UNL1       -0.2382
     13 C          61.5140   86.7852   11.0853 C.ar    1  UNL1        0.2073
     14 N          61.1938   85.3365   11.3064 N.ar    1  UNL1       -0.1442
     15 N          62.1824   84.7885   12.2926 N.ar    1  UNL1       -0.2024
     16 C          62.2312   83.3782   12.8010 C.3     1  UNL1        0.1099
     17 C          62.5158   82.1548   11.9812 C.3     1  UNL1        0.0245
     18 C          62.4645   80.9642   12.8921 C.3     1  UNL1        0.0021
     19 C          62.1481   81.4517   14.2749 C.3     1  UNL1        0.0021
     20 C          62.0039   82.9437   14.2186 C.3     1  UNL1        0.0245
     21 C          65.9899   93.8583   12.3750 C.3     1  UNL1        0.1932
     22 O          66.6478   95.2035   12.4631 O.3     1  UNL1       -0.3755
     23 H          66.2729   95.7915   11.7889 H       1  UNL1        0.2110
     24 C          66.8375   93.3693   13.5119 C.ar    1  UNL1        0.0368
     25 C          66.5772   93.8585   14.9059 C.ar    1  UNL1        0.0028
     26 C          67.4248   93.3695   16.0428 C.ar    1  UNL1        0.0295
     27 C          68.5326   92.3914   15.7858 C.ar    1  UNL1        0.1424
     28 F          69.3802   91.9024   16.9227 F       1  UNL1       -0.2041
     29 C          68.7929   91.9022   14.3919 C.ar    1  UNL1        0.0590
     30 C          67.9453   92.3912   13.2550 C.ar    1  UNL1        0.1408
     31 F          68.2056   91.9020   11.8611 F       1  UNL1       -0.2043
     32 C          65.1424   94.3472   11.2381 C.3     1  UNL1        0.1679
     33 N          65.7598   95.1568   10.1365 N.ar    1  UNL1       -0.2078
     34 C          65.1526   96.3619    9.4813 C.ar    1  UNL1        0.2216
     35 N          66.1103   96.8532    8.4366 N.ar    1  UNL1       -0.1048
     36 N          67.3093   95.9519    8.4461 N.ar    1  UNL1       -0.0226
     37 N          67.0926   94.9034    9.4967 N.ar    1  UNL1       -0.0428
@<TRIPOS>BOND
     1    10    11    2
     2    11    12   ar
     3    12     4    1
     4     4     5   ar
     5     5     6   ar
     6     6     7   ar
     7     7     1    1
     8     1     2    1
     9     1     3    1
    10     1    21    1
    11    21    22    1
    12    21    32    1
    13    32    33    1
    14    33    34   ar
    15    34    35   ar
    16    35    36   ar
    17    36    37   ar
    18    21    24    1
    19    24    25   ar
    20    25    26   ar
    21    26    27   ar
    22    27    28    1
    23    27    29   ar
    24    29    30   ar
    25    30    31    1
    26     7     8   ar
    27     8     9   ar
    28    12    13   ar
    29    13    14   ar
    30    14    15   ar
    31    15    16    1
    32    16    17    1
    33    17    18    1
    34    18    19    1
    35    19    20    1
    36    15    11   ar
    37    20    16    1
    38     9     4   ar
    39    37    33   ar
    40    30    24   ar
    41    22    23    1
