@<TRIPOS>MOLECULE
*****
 34 37 0 0 0
SMALL
GASTEIGER

@<TRIPOS>ATOM
      1 C          63.7496   89.2676   13.5781 C.2     1  UNL1        0.2320
      2 O          63.6568   87.7922   13.3239 O.2     1  UNL1       -0.2744
      3 N          62.7455   90.1987   12.9658 N.am    1  UNL1       -0.2639
      4 H          62.8064   91.1670   13.1327 H       1  UNL1        0.1567
      5 C          61.6488   89.6544   12.0993 C.ar    1  UNL1        0.1655
      6 N          61.8260   88.7437   10.9207 N.ar    1  UNL1       -0.2239
      7 C          60.4690   88.4517   10.3522 C.ar    1  UNL1        0.0913
      8 C          59.4530   89.1821   11.1794 C.ar    1  UNL1        0.0573
      9 S          60.1821   89.9254   12.2592 S.2     1  UNL1       -0.0508
     10 C          60.1789   87.5821    9.1649 C.ar    1  UNL1        0.0403
     11 C          58.9075   87.5723    8.3690 C.ar    1  UNL1        0.1021
     12 N          59.0521   86.5537    7.2773 N.ar    1  UNL1       -0.2269
     13 C          60.4128   85.9341    7.3986 C.ar    1  UNL1        0.1406
     14 N          61.1076   84.8733    6.5975 N.ar    1  UNL1       -0.3374
     15 C          62.4988   84.4481    6.9630 C.ar    1  UNL1        0.0735
     16 C          63.1952   85.0837    8.1296 C.ar    1  UNL1        0.0186
     17 C          62.5004   86.1445    8.9308 C.ar    1  UNL1        0.0046
     18 C          61.1092   86.5697    8.5652 C.ar    1  UNL1        0.0370
     19 H          60.6505   84.4562    5.8318 H       1  UNL1        0.1674
     20 C          64.8463   89.8118   14.4446 C.3     1  UNL1        0.1117
     21 C          65.9218   93.1035   12.5059 C.ar    1  UNL1        0.1216
     22 C          66.5557   93.8909   13.6141 C.ar    1  UNL1        0.0199
     23 C          66.6199   93.3186   14.9991 C.ar    1  UNL1        0.0011
     24 C          66.0501   91.9589   15.2760 C.ar    1  UNL1       -0.0037
     25 C          65.4161   91.1715   14.1677 C.ar    1  UNL1       -0.0117
     26 C          65.3520   91.7438   12.7827 C.ar    1  UNL1        0.0161
     27 S          65.8575   93.6757   11.1208 S.O2    1  UNL1        0.0602
     28 O          65.4399   92.3375   10.5873 O.2     1  UNL1       -0.1530
     29 O          66.2752   95.0140   11.6544 O.2     1  UNL1       -0.1530
     30 N          65.7933   94.2480    9.7357 N.3     1  UNL1       -0.1794
     31 H          65.2218   93.6114    9.1803 H       1  UNL1        0.1488
     32 C          67.0567   94.4827    8.9619 C.3     1  UNL1        0.0914
     33 C          68.6012   92.3960    8.8606 C.3     1  UNL1        0.0015
     34 C          68.3217   93.7822    9.3609 C.3     1  UNL1        0.0188
@<TRIPOS>BOND
     1    33    34    1
     2    34    32    1
     3    32    30    1
     4    30    27    1
     5    27    28    2
     6    27    29    2
     7    27    21    1
     8    21    22   ar
     9    22    23   ar
    10    23    24   ar
    11    24    25   ar
    12    25    20    1
    13    20     1    1
    14     1     2    2
    15     1     3   am
    16     3     5    1
    17     5     6   ar
    18     6     7   ar
    19     7    10    1
    20    10    11   ar
    21    11    12   ar
    22    12    13   ar
    23    13    14   ar
    24    14    15   ar
    25    15    16   ar
    26    16    17   ar
    27    17    18   ar
    28     7     8   ar
    29     8     9   ar
    30    25    26   ar
    31    26    21   ar
    32     9     5   ar
    33    18    10   ar
    34    18    13    1
    35    30    31    1
    36     3     4    1
    37    14    19    1
@<TRIPOS>MOLECULE
*****
 34 37 0 0 0
SMALL
GASTEIGER

@<TRIPOS>ATOM
      1 C          63.6276   89.1362   14.0002 C.2     1  UNL1        0.2320
      2 O          64.3137   87.8663   14.4083 O.2     1  UNL1       -0.2744
      3 N          62.7853   89.1682   12.7595 N.am    1  UNL1       -0.2639
      4 H          62.3350   90.0017   12.4916 H       1  UNL1        0.1567
      5 C          62.6289   87.9304   11.9270 C.ar    1  UNL1        0.1655
      6 N          63.1172   86.5584   12.2865 N.ar    1  UNL1       -0.2239
      7 C          62.7470   85.6273   11.1705 C.ar    1  UNL1        0.0913
      8 C          62.0298   86.4237   10.1210 C.ar    1  UNL1        0.0573
      9 S          61.9568   87.8471   10.5885 S.2     1  UNL1       -0.0508
     10 C          63.0421   84.1577   11.1137 C.ar    1  UNL1        0.0403
     11 C          63.6552   83.4255    9.9570 C.ar    1  UNL1        0.1021
     12 N          63.7678   81.9776   10.3321 N.ar    1  UNL1       -0.2269
     13 C          63.2244   81.8148   11.7207 C.ar    1  UNL1        0.1406
     14 N          63.0801   80.6139   12.6077 N.ar    1  UNL1       -0.3374
     15 C          62.4872   80.7603   13.9777 C.ar    1  UNL1        0.0735
     16 C          62.0386   82.1077   14.4608 C.ar    1  UNL1        0.0186
     17 C          62.1829   83.3086   13.5738 C.ar    1  UNL1        0.0046
     18 C          62.7758   83.1622   12.2038 C.ar    1  UNL1        0.0370
     19 H          63.3745   79.7295   12.2907 H       1  UNL1        0.1674
     20 C          63.7839   90.3741   14.8328 C.3     1  UNL1        0.1117
     21 C          65.8282   92.9695   12.6338 C.ar    1  UNL1        0.1216
     22 C          66.7832   93.5149   13.6538 C.ar    1  UNL1        0.0199
     23 C          66.7386   93.0134   15.0667 C.ar    1  UNL1        0.0011
     24 C          65.7388   91.9664   15.4598 C.ar    1  UNL1       -0.0037
     25 C          64.7837   91.4210   14.4397 C.ar    1  UNL1       -0.0117
     26 C          64.8284   91.9226   13.0267 C.ar    1  UNL1        0.0161
     27 S          65.8728   93.4710   11.2208 S.O2    1  UNL1        0.0602
     28 O          66.6580   94.6674   11.6703 O.2     1  UNL1       -0.1530
     29 O          65.0876   92.2745   10.7714 O.2     1  UNL1       -0.1530
     30 N          65.9175   93.9725    9.8078 N.3     1  UNL1       -0.1794
     31 H          65.5808   93.2136    9.2153 H       1  UNL1        0.1488
     32 C          67.2154   94.4391    9.2183 C.3     1  UNL1        0.0914
     33 C          68.8792   92.4533    9.4139 C.3     1  UNL1        0.0015
     34 C          68.1431   93.4531    8.5722 C.3     1  UNL1        0.0188
@<TRIPOS>BOND
     1    33    34    1
     2    34    32    1
     3    32    30    1
     4    30    27    1
     5    27    28    2
     6    27    29    2
     7    27    21    1
     8    21    22   ar
     9    22    23   ar
    10    23    24   ar
    11    24    25   ar
    12    25    20    1
    13    20     1    1
    14     1     2    2
    15     1     3   am
    16     3     5    1
    17     5     6   ar
    18     6     7   ar
    19     7    10    1
    20    10    11   ar
    21    11    12   ar
    22    12    13   ar
    23    13    14   ar
    24    14    15   ar
    25    15    16   ar
    26    16    17   ar
    27    17    18   ar
    28     7     8   ar
    29     8     9   ar
    30    25    26   ar
    31    26    21   ar
    32     9     5   ar
    33    18    10   ar
    34    18    13    1
    35    30    31    1
    36     3     4    1
    37    14    19    1
@<TRIPOS>MOLECULE
*****
 34 37 0 0 0
SMALL
GASTEIGER

@<TRIPOS>ATOM
      1 C          64.2577   85.8887   15.3402 C.2     1  UNL1        0.2320
      2 O          65.6645   86.2775   14.9939 O.2     1  UNL1       -0.2744
      3 N          63.2471   86.9466   15.6710 N.am    1  UNL1       -0.2639
      4 H          62.3238   86.6915   15.8983 H       1  UNL1        0.1567
      5 C          63.6432   88.3932   15.6554 C.ar    1  UNL1        0.1655
      6 N          64.6957   89.0099   14.7826 N.ar    1  UNL1       -0.2239
      7 C          64.7593   90.4750   15.0977 C.ar    1  UNL1        0.0913
      8 C          63.7460   90.7640   16.1652 C.ar    1  UNL1        0.0573
      9 S          63.0562   89.4774   16.5099 S.2     1  UNL1       -0.0508
     10 C          65.6754   91.4756   14.4576 C.ar    1  UNL1        0.0403
     11 C          66.8564   92.1325   15.1085 C.ar    1  UNL1        0.1021
     12 N          67.4821   93.0578   14.1073 N.ar    1  UNL1       -0.2269
     13 C          66.6878   92.9729   12.8377 C.ar    1  UNL1        0.1406
     14 N          66.8370   93.6596   11.5126 N.ar    1  UNL1       -0.3374
     15 C          65.8696   93.3684   10.4039 C.ar    1  UNL1        0.0735
     16 C          64.7530   92.3905   10.6203 C.ar    1  UNL1        0.0186
     17 C          64.6037   91.7038   11.9455 C.ar    1  UNL1        0.0046
     18 C          65.5711   91.9950   13.0542 C.ar    1  UNL1        0.0370
     19 H          67.5699   94.3014   11.3705 H       1  UNL1        0.1674
     20 C          63.8616   84.4420   15.3558 C.3     1  UNL1        0.1117
     21 C          62.9413   83.8673   11.5384 C.ar    1  UNL1        0.1216
     22 C          62.6897   82.3886   11.5270 C.ar    1  UNL1        0.0199
     23 C          62.8287   81.5944   12.7918 C.ar    1  UNL1        0.0011
     24 C          63.2193   82.2789   14.0682 C.ar    1  UNL1       -0.0037
     25 C          63.4710   83.7576   14.0795 C.ar    1  UNL1       -0.0117
     26 C          63.3320   84.5518   12.8146 C.ar    1  UNL1        0.0161
     27 S          62.8023   84.6616   10.2735 S.O2    1  UNL1        0.0602
     28 O          61.8157   85.5664   10.9502 O.2     1  UNL1       -0.1530
     29 O          63.7889   83.7567    9.5969 O.2     1  UNL1       -0.1530
     30 N          62.6633   85.4558    9.0087 N.3     1  UNL1       -0.1794
     31 H          63.5061   86.0240    8.9236 H       1  UNL1        0.1488
     32 C          61.4970   86.3817    8.8288 C.3     1  UNL1        0.0914
     33 C          59.1374   86.8211    7.8343 C.3     1  UNL1        0.0015
     34 C          60.4266   86.0543    7.8303 C.3     1  UNL1        0.0188
@<TRIPOS>BOND
     1    33    34    1
     2    34    32    1
     3    32    30    1
     4    30    27    1
     5    27    28    2
     6    27    29    2
     7    27    21    1
     8    21    22   ar
     9    22    23   ar
    10    23    24   ar
    11    24    25   ar
    12    25    20    1
    13    20     1    1
    14     1     2    2
    15     1     3   am
    16     3     5    1
    17     5     6   ar
    18     6     7   ar
    19     7    10    1
    20    10    11   ar
    21    11    12   ar
    22    12    13   ar
    23    13    14   ar
    24    14    15   ar
    25    15    16   ar
    26    16    17   ar
    27    17    18   ar
    28     7     8   ar
    29     8     9   ar
    30    25    26   ar
    31    26    21   ar
    32     9     5   ar
    33    18    10   ar
    34    18    13    1
    35    30    31    1
    36     3     4    1
    37    14    19    1
@<TRIPOS>MOLECULE
*****
 34 37 0 0 0
SMALL
GASTEIGER

@<TRIPOS>ATOM
      1 C          62.7471   88.9800   11.9568 C.2     1  UNL1        0.2320
      2 O          61.7583   87.9271   11.5522 O.2     1  UNL1       -0.2744
      3 N          63.7645   88.6849   13.0188 N.am    1  UNL1       -0.2639
      4 H          64.4135   89.3760   13.2843 H       1  UNL1        0.1567
      5 C          63.7932   87.3370   13.6761 C.ar    1  UNL1        0.1655
      6 N          63.2239   86.0689   13.1125 N.ar    1  UNL1       -0.2239
      7 C          63.4750   84.9686   14.1006 C.ar    1  UNL1        0.0913
      8 C          64.1995   85.5568   15.2750 C.ar    1  UNL1        0.0573
      9 S          64.3962   87.0205   15.0126 S.2     1  UNL1       -0.0508
     10 C          63.0723   83.5324   13.9422 C.ar    1  UNL1        0.0403
     11 C          62.4448   82.6711   14.9978 C.ar    1  UNL1        0.1021
     12 N          62.2111   81.3117   14.4084 N.ar    1  UNL1       -0.2269
     13 C          62.6942   81.3329   12.9885 C.ar    1  UNL1        0.1406
     14 N          62.7182   80.2797   11.9207 N.ar    1  UNL1       -0.3374
     15 C          63.2745   80.5990   10.5647 C.ar    1  UNL1        0.0735
     16 C          63.8067   81.9715   10.2766 C.ar    1  UNL1        0.0186
     17 C          63.7827   83.0247   11.3444 C.ar    1  UNL1        0.0046
     18 C          63.2265   82.7053   12.7003 C.ar    1  UNL1        0.0370
     19 H          62.3689   79.3789   12.1098 H       1  UNL1        0.1674
     20 C          62.7185   90.3280   11.2994 C.3     1  UNL1        0.1117
     21 C          65.4892   92.4998   13.1314 C.ar    1  UNL1        0.1216
     22 C          66.0924   93.2296   11.9680 C.ar    1  UNL1        0.0199
     23 C          65.5710   92.9922   10.5817 C.ar    1  UNL1        0.0011
     24 C          64.4463   92.0250   10.3588 C.ar    1  UNL1       -0.0037
     25 C          63.8431   91.2952   11.5223 C.ar    1  UNL1       -0.0117
     26 C          64.3646   91.5326   12.9086 C.ar    1  UNL1        0.0161
     27 S          66.0106   92.7372   14.5177 S.O2    1  UNL1        0.0602
     28 O          66.2852   94.1701   14.1690 O.2     1  UNL1       -0.1530
     29 O          65.7360   91.3043   14.8663 O.2     1  UNL1       -0.1530
     30 N          66.5320   92.9746   15.9040 N.3     1  UNL1       -0.1794
     31 H          66.7015   93.9770   15.9872 H       1  UNL1        0.1488
     32 C          67.7820   92.2845   16.3635 C.3     1  UNL1        0.0914
     33 C          69.4417   94.2265   15.8903 C.3     1  UNL1        0.0015
     34 C          69.1212   92.7611   15.8845 C.3     1  UNL1        0.0188
@<TRIPOS>BOND
     1    33    34    1
     2    34    32    1
     3    32    30    1
     4    30    27    1
     5    27    28    2
     6    27    29    2
     7    27    21    1
     8    21    22   ar
     9    22    23   ar
    10    23    24   ar
    11    24    25   ar
    12    25    20    1
    13    20     1    1
    14     1     2    2
    15     1     3   am
    16     3     5    1
    17     5     6   ar
    18     6     7   ar
    19     7    10    1
    20    10    11   ar
    21    11    12   ar
    22    12    13   ar
    23    13    14   ar
    24    14    15   ar
    25    15    16   ar
    26    16    17   ar
    27    17    18   ar
    28     7     8   ar
    29     8     9   ar
    30    25    26   ar
    31    26    21   ar
    32     9     5   ar
    33    18    10   ar
    34    18    13    1
    35    30    31    1
    36     3     4    1
    37    14    19    1
@<TRIPOS>MOLECULE
*****
 34 37 0 0 0
SMALL
GASTEIGER

@<TRIPOS>ATOM
      1 C          63.5149   89.6386   14.8971 C.2     1  UNL1        0.2320
      2 O          62.6690   89.3237   16.0951 O.2     1  UNL1       -0.2744
      3 N          64.1370   88.5270   14.1051 N.am    1  UNL1       -0.2639
      4 H          64.6921   88.7336   13.3188 H       1  UNL1        0.1567
      5 C          63.9133   87.1005   14.5112 C.ar    1  UNL1        0.1655
      6 N          63.4108   85.9997   13.6247 N.ar    1  UNL1       -0.2239
      7 C          63.3398   84.7432   14.4407 C.ar    1  UNL1        0.0913
      8 C          63.7983   85.0672   15.8317 C.ar    1  UNL1        0.0573
      9 S          64.1528   86.5241   15.8753 S.2     1  UNL1       -0.0508
     10 C          62.8893   83.3986   13.9517 C.ar    1  UNL1        0.0403
     11 C          62.0323   82.4272   14.7079 C.ar    1  UNL1        0.1021
     12 N          61.8300   81.2176   13.8442 N.ar    1  UNL1       -0.2269
     13 C          62.5621   81.4414   12.5542 C.ar    1  UNL1        0.1406
     14 N          62.7171   80.5920   11.3277 N.ar    1  UNL1       -0.3374
     15 C          63.5268   81.0906   10.1676 C.ar    1  UNL1        0.0735
     16 C          64.1814   82.4386   10.2341 C.ar    1  UNL1        0.0186
     17 C          64.0264   83.2880   11.4606 C.ar    1  UNL1        0.0046
     18 C          63.2167   82.7894   12.6207 C.ar    1  UNL1        0.0370
     19 H          62.2874   79.7073   11.2841 H       1  UNL1        0.1674
     20 C          63.7386   91.0652   14.4909 C.3     1  UNL1        0.1117
     21 C          66.4453   92.5395   11.9909 C.ar    1  UNL1        0.1216
     22 C          67.7049   92.3206   12.7755 C.ar    1  UNL1        0.0199
     23 C          67.6424   91.6833   14.1320 C.ar    1  UNL1        0.0011
     24 C          66.3202   91.2648   14.7038 C.ar    1  UNL1       -0.0037
     25 C          65.0606   91.4837   13.9191 C.ar    1  UNL1       -0.0117
     26 C          65.1232   92.1210   12.5626 C.ar    1  UNL1        0.0161
     27 S          66.5078   93.1768   10.6345 S.O2    1  UNL1        0.0602
     28 O          68.0026   93.0517   10.6446 O.2     1  UNL1       -0.1530
     29 O          65.0131   93.3019   10.6244 O.2     1  UNL1       -0.1530
     30 N          66.5704   93.8141    9.2780 N.3     1  UNL1       -0.1794
     31 H          66.6401   93.0558    8.5994 H       1  UNL1        0.1488
     32 C          67.6666   94.7859    8.9558 C.3     1  UNL1        0.0914
     33 C          66.6224   96.8538    7.7796 C.3     1  UNL1        0.0015
     34 C          67.3799   96.2580    8.9290 C.3     1  UNL1        0.0188
@<TRIPOS>BOND
     1    33    34    1
     2    34    32    1
     3    32    30    1
     4    30    27    1
     5    27    28    2
     6    27    29    2
     7    27    21    1
     8    21    22   ar
     9    22    23   ar
    10    23    24   ar
    11    24    25   ar
    12    25    20    1
    13    20     1    1
    14     1     2    2
    15     1     3   am
    16     3     5    1
    17     5     6   ar
    18     6     7   ar
    19     7    10    1
    20    10    11   ar
    21    11    12   ar
    22    12    13   ar
    23    13    14   ar
    24    14    15   ar
    25    15    16   ar
    26    16    17   ar
    27    17    18   ar
    28     7     8   ar
    29     8     9   ar
    30    25    26   ar
    31    26    21   ar
    32     9     5   ar
    33    18    10   ar
    34    18    13    1
    35    30    31    1
    36     3     4    1
    37    14    19    1
@<TRIPOS>MOLECULE
*****
 34 37 0 0 0
SMALL
GASTEIGER

@<TRIPOS>ATOM
      1 C          62.2364   86.3472   10.2456 C.2     1  UNL1        0.2320
      2 O          62.8448   86.7774    8.9438 O.2     1  UNL1       -0.2744
      3 N          62.0015   87.3538   11.3326 N.am    1  UNL1       -0.2639
      4 H          61.6022   87.0715   12.1870 H       1  UNL1        0.1567
      5 C          62.3750   88.7905   11.1178 C.ar    1  UNL1        0.1655
      6 N          63.5775   89.4836   11.6869 N.ar    1  UNL1       -0.2239
      7 C          63.5574   90.9079   11.2171 C.ar    1  UNL1        0.0913
      8 C          62.3425   91.0952   10.3574 C.ar    1  UNL1        0.0573
      9 S          61.6118   89.7867   10.2961 S.2     1  UNL1       -0.0508
     10 C          64.5736   91.9601   11.5485 C.ar    1  UNL1        0.0403
     11 C          65.1120   92.9943   10.6048 C.ar    1  UNL1        0.1021
     12 N          66.1011   93.8363   11.3550 N.ar    1  UNL1       -0.2269
     13 C          66.1740   93.3225   12.7624 C.ar    1  UNL1        0.1406
     14 N          66.9781   93.7607   13.9504 N.ar    1  UNL1       -0.3374
     15 C          66.8381   93.0393   15.2580 C.ar    1  UNL1        0.0735
     16 C          65.8941   91.8798   15.3776 C.ar    1  UNL1        0.0186
     17 C          65.0901   91.4416   14.1896 C.ar    1  UNL1        0.0046
     18 C          65.2300   92.1629   12.8820 C.ar    1  UNL1        0.0370
     19 H          67.5977   94.5217   13.8719 H       1  UNL1        0.1674
     20 C          61.8628   84.9105   10.4605 C.3     1  UNL1        0.1117
     21 C          63.3027   84.1203   14.0733 C.ar    1  UNL1        0.1216
     22 C          63.5529   82.6455   13.9625 C.ar    1  UNL1        0.0199
     23 C          63.2398   81.9256   12.6843 C.ar    1  UNL1        0.0011
     24 C          62.6764   82.6806   11.5169 C.ar    1  UNL1       -0.0037
     25 C          62.4262   84.1555   11.6278 C.ar    1  UNL1       -0.0117
     26 C          62.7394   84.8754   12.9060 C.ar    1  UNL1        0.0161
     27 S          63.6159   84.8402   15.3515 S.O2    1  UNL1        0.0602
     28 O          62.1881   84.6898   15.7860 O.2     1  UNL1       -0.1530
     29 O          65.0437   84.9906   14.9169 O.2     1  UNL1       -0.1530
     30 N          63.9291   85.5601   16.6296 N.3     1  UNL1       -0.1794
     31 H          64.3879   84.8861   17.2424 H       1  UNL1        0.1488
     32 C          62.8244   86.1881   17.4268 C.3     1  UNL1        0.0914
     33 C          63.1503   88.6333   16.6116 C.3     1  UNL1        0.0015
     34 C          62.8495   87.6603   17.7129 C.3     1  UNL1        0.0188
@<TRIPOS>BOND
     1    33    34    1
     2    34    32    1
     3    32    30    1
     4    30    27    1
     5    27    28    2
     6    27    29    2
     7    27    21    1
     8    21    22   ar
     9    22    23   ar
    10    23    24   ar
    11    24    25   ar
    12    25    20    1
    13    20     1    1
    14     1     2    2
    15     1     3   am
    16     3     5    1
    17     5     6   ar
    18     6     7   ar
    19     7    10    1
    20    10    11   ar
    21    11    12   ar
    22    12    13   ar
    23    13    14   ar
    24    14    15   ar
    25    15    16   ar
    26    16    17   ar
    27    17    18   ar
    28     7     8   ar
    29     8     9   ar
    30    25    26   ar
    31    26    21   ar
    32     9     5   ar
    33    18    10   ar
    34    18    13    1
    35    30    31    1
    36     3     4    1
    37    14    19    1
@<TRIPOS>MOLECULE
*****
 34 37 0 0 0
SMALL
GASTEIGER

@<TRIPOS>ATOM
      1 C          61.7449   88.3372   11.5909 C.2     1  UNL1        0.2320
      2 O          61.1530   89.7145   11.5394 O.2     1  UNL1       -0.2744
      3 N          62.9883   88.0847   12.3910 N.am    1  UNL1       -0.2639
      4 H          63.3768   87.1807   12.4248 H       1  UNL1        0.1567
      5 C          63.6399   89.2095   13.1394 C.ar    1  UNL1        0.1655
      6 N          64.3174   90.3999   12.5278 N.ar    1  UNL1       -0.2239
      7 C          64.8246   91.2675   13.6413 C.ar    1  UNL1        0.0913
      8 C          64.4607   90.6133   14.9412 C.ar    1  UNL1        0.0573
      9 S          63.7285   89.3414   14.6310 S.2     1  UNL1       -0.0508
     10 C          65.5657   92.5620   13.4828 C.ar    1  UNL1        0.0403
     11 C          66.2417   93.3308   14.5791 C.ar    1  UNL1        0.1021
     12 N          66.8546   94.5589   13.9740 N.ar    1  UNL1       -0.2269
     13 C          66.5574   94.5490   12.5038 C.ar    1  UNL1        0.1406
     14 N          66.9093   95.5044   11.4022 N.ar    1  UNL1       -0.3374
     15 C          66.4645   95.2256    9.9971 C.ar    1  UNL1        0.0735
     16 C          65.6679   93.9914    9.6935 C.ar    1  UNL1        0.0186
     17 C          65.3160   93.0360   10.7951 C.ar    1  UNL1        0.0046
     18 C          65.7608   93.3148   12.2002 C.ar    1  UNL1        0.0370
     19 H          67.4322   96.3144   11.6015 H       1  UNL1        0.1674
     20 C          61.0933   87.2124   10.8425 C.3     1  UNL1        0.1117
     21 C          63.4028   83.9921   10.6278 C.ar    1  UNL1        0.1216
     22 C          63.6047   83.8863    9.1453 C.ar    1  UNL1        0.0199
     23 C          62.9696   84.8893    8.2284 C.ar    1  UNL1        0.0011
     24 C          62.1324   85.9980    8.7941 C.ar    1  UNL1       -0.0037
     25 C          61.9304   86.1037   10.2768 C.ar    1  UNL1       -0.0117
     26 C          62.5657   85.1007   11.1936 C.ar    1  UNL1        0.0161
     27 S          64.0380   82.9891   11.5447 S.O2    1  UNL1        0.0602
     28 O          64.3580   82.1159   10.3678 O.2     1  UNL1       -0.1530
     29 O          63.7179   83.8624   12.7216 O.2     1  UNL1       -0.1530
     30 N          64.6731   81.9862   12.4616 N.3     1  UNL1       -0.1794
     31 H          65.1355   81.2967   11.8689 H       1  UNL1        0.1488
     32 C          63.8286   81.2216   13.4373 C.3     1  UNL1        0.0914
     33 C          61.2843   81.0145   13.9206 C.3     1  UNL1        0.0015
     34 C          62.4646   80.7440   13.0354 C.3     1  UNL1        0.0188
@<TRIPOS>BOND
     1    33    34    1
     2    34    32    1
     3    32    30    1
     4    30    27    1
     5    27    28    2
     6    27    29    2
     7    27    21    1
     8    21    22   ar
     9    22    23   ar
    10    23    24   ar
    11    24    25   ar
    12    25    20    1
    13    20     1    1
    14     1     2    2
    15     1     3   am
    16     3     5    1
    17     5     6   ar
    18     6     7   ar
    19     7    10    1
    20    10    11   ar
    21    11    12   ar
    22    12    13   ar
    23    13    14   ar
    24    14    15   ar
    25    15    16   ar
    26    16    17   ar
    27    17    18   ar
    28     7     8   ar
    29     8     9   ar
    30    25    26   ar
    31    26    21   ar
    32     9     5   ar
    33    18    10   ar
    34    18    13    1
    35    30    31    1
    36     3     4    1
    37    14    19    1
@<TRIPOS>MOLECULE
*****
 34 37 0 0 0
SMALL
GASTEIGER

@<TRIPOS>ATOM
      1 C          63.7252   90.5978   15.2676 C.2     1  UNL1        0.2320
      2 O          64.7978   91.6428   15.3539 O.2     1  UNL1       -0.2744
      3 N          63.1568   90.2150   13.9333 N.am    1  UNL1       -0.2639
      4 H          62.4528   89.5291   13.8766 H       1  UNL1        0.1567
      5 C          63.6610   90.8771   12.6854 C.ar    1  UNL1        0.1655
      6 N          65.0261   91.4674   12.4903 N.ar    1  UNL1       -0.2239
      7 C          65.0975   92.0203   11.0978 C.ar    1  UNL1        0.0913
      8 C          63.7764   91.7717   10.4322 C.ar    1  UNL1        0.0573
      9 S          62.8887   91.0652   11.4133 S.2     1  UNL1       -0.0508
     10 C          66.2819   92.7021   10.4795 C.ar    1  UNL1        0.0403
     11 C          67.6122   92.0711   10.1932 C.ar    1  UNL1        0.1021
     12 N          68.4964   93.1137    9.5756 N.ar    1  UNL1       -0.2269
     13 C          67.7124   94.3890    9.4803 C.ar    1  UNL1        0.1406
     14 N          68.0680   95.7490    8.9569 N.ar    1  UNL1       -0.3374
     15 C          67.0550   96.8546    8.9922 C.ar    1  UNL1        0.0735
     16 C          65.6863   96.6002    9.5509 C.ar    1  UNL1        0.0186
     17 C          65.3307   95.2402   10.0742 C.ar    1  UNL1        0.0046
     18 C          66.3438   94.1346   10.0389 C.ar    1  UNL1        0.0370
     19 H          68.9663   95.9159    8.5903 H       1  UNL1        0.1674
     20 C          63.2209   89.9357   16.5155 C.3     1  UNL1        0.1117
     21 C          63.7457   86.1100   15.5997 C.ar    1  UNL1        0.1216
     22 C          63.2690   85.4490   16.8590 C.ar    1  UNL1        0.0199
     23 C          62.7763   86.2836   18.0038 C.ar    1  UNL1        0.0011
     24 C          62.7602   87.7792   17.8894 C.ar    1  UNL1       -0.0037
     25 C          63.2370   88.4401   16.6300 C.ar    1  UNL1       -0.0117
     26 C          63.7297   87.6055   15.4851 C.ar    1  UNL1        0.0161
     27 S          64.2385   85.2754   14.4548 S.O2    1  UNL1        0.0602
     28 O          65.6493   85.4537   14.9321 O.2     1  UNL1       -0.1530
     29 O          62.8276   85.0971   13.9776 O.2     1  UNL1       -0.1530
     30 N          64.7312   84.4408   13.3100 N.3     1  UNL1       -0.1794
     31 H          65.3664   85.0280   12.7695 H       1  UNL1        0.1488
     32 C          63.7540   83.8504   12.3371 C.3     1  UNL1        0.0914
     33 C          64.3733   82.5022   10.2043 C.3     1  UNL1        0.0015
     34 C          64.0576   82.5415   11.6702 C.3     1  UNL1        0.0188
@<TRIPOS>BOND
     1    33    34    1
     2    34    32    1
     3    32    30    1
     4    30    27    1
     5    27    28    2
     6    27    29    2
     7    27    21    1
     8    21    22   ar
     9    22    23   ar
    10    23    24   ar
    11    24    25   ar
    12    25    20    1
    13    20     1    1
    14     1     2    2
    15     1     3   am
    16     3     5    1
    17     5     6   ar
    18     6     7   ar
    19     7    10    1
    20    10    11   ar
    21    11    12   ar
    22    12    13   ar
    23    13    14   ar
    24    14    15   ar
    25    15    16   ar
    26    16    17   ar
    27    17    18   ar
    28     7     8   ar
    29     8     9   ar
    30    25    26   ar
    31    26    21   ar
    32     9     5   ar
    33    18    10   ar
    34    18    13    1
    35    30    31    1
    36     3     4    1
    37    14    19    1
@<TRIPOS>MOLECULE
*****
 34 37 0 0 0
SMALL
GASTEIGER

@<TRIPOS>ATOM
      1 C          63.8332   89.0302   14.3410 C.2     1  UNL1        0.2320
      2 O          63.5435   88.6478   12.9198 O.2     1  UNL1       -0.2744
      3 N          64.0130   87.9656   15.3823 N.am    1  UNL1       -0.2639
      4 H          64.2032   88.2165   16.3151 H       1  UNL1        0.1567
      5 C          63.9032   86.5187   15.0024 C.ar    1  UNL1        0.1655
      6 N          63.8607   85.9747   13.6052 N.ar    1  UNL1       -0.2239
      7 C          63.7478   84.4816   13.6922 C.ar    1  UNL1        0.0913
      8 C          63.7204   84.1026   15.1433 C.ar    1  UNL1        0.0573
      9 S          63.8165   85.3616   15.9531 S.2     1  UNL1       -0.0508
     10 C          63.6750   83.5337   12.5320 C.ar    1  UNL1        0.0403
     11 C          64.0502   83.8458   11.1136 C.ar    1  UNL1        0.1021
     12 N          63.8213   82.6122   10.2915 N.ar    1  UNL1       -0.2269
     13 C          63.3046   81.5377   11.2017 C.ar    1  UNL1        0.1406
     14 N          62.9047   80.1144   10.9486 N.ar    1  UNL1       -0.3374
     15 C          62.4145   79.2605   12.0802 C.ar    1  UNL1        0.0735
     16 C          62.3241   79.8300   13.4649 C.ar    1  UNL1        0.0186
     17 C          62.7239   81.2534   13.7180 C.ar    1  UNL1        0.0046
     18 C          63.2142   82.1072   12.5865 C.ar    1  UNL1        0.0370
     19 H          62.9641   79.7406   10.0397 H       1  UNL1        0.1674
     20 C          63.9430   90.4771   14.7209 C.3     1  UNL1        0.1117
     21 C          66.1367   92.8817   12.4503 C.ar    1  UNL1        0.1216
     22 C          67.4101   92.9349   13.2413 C.ar    1  UNL1        0.0199
     23 C          67.5278   92.1689   14.5256 C.ar    1  UNL1        0.0011
     24 C          66.3720   91.3496   15.0188 C.ar    1  UNL1       -0.0037
     25 C          65.0987   91.2964   14.2277 C.ar    1  UNL1       -0.0117
     26 C          64.9811   92.0625   12.9434 C.ar    1  UNL1        0.0161
     27 S          66.0190   93.6477   11.1660 S.O2    1  UNL1        0.0602
     28 O          65.4298   92.4400   10.4996 O.2     1  UNL1       -0.1530
     29 O          66.6083   94.8555   11.8324 O.2     1  UNL1       -0.1530
     30 N          65.9013   94.4138    9.8817 N.3     1  UNL1       -0.1794
     31 H          65.1112   94.0167    9.3734 H       1  UNL1        0.1488
     32 C          67.0554   94.4549    8.9245 C.3     1  UNL1        0.0914
     33 C          68.6005   92.3667    8.8802 C.3     1  UNL1        0.0015
     34 C          68.3513   93.7899    9.2831 C.3     1  UNL1        0.0188
@<TRIPOS>BOND
     1    33    34    1
     2    34    32    1
     3    32    30    1
     4    30    27    1
     5    27    28    2
     6    27    29    2
     7    27    21    1
     8    21    22   ar
     9    22    23   ar
    10    23    24   ar
    11    24    25   ar
    12    25    20    1
    13    20     1    1
    14     1     2    2
    15     1     3   am
    16     3     5    1
    17     5     6   ar
    18     6     7   ar
    19     7    10    1
    20    10    11   ar
    21    11    12   ar
    22    12    13   ar
    23    13    14   ar
    24    14    15   ar
    25    15    16   ar
    26    16    17   ar
    27    17    18   ar
    28     7     8   ar
    29     8     9   ar
    30    25    26   ar
    31    26    21   ar
    32     9     5   ar
    33    18    10   ar
    34    18    13    1
    35    30    31    1
    36     3     4    1
    37    14    19    1
