@<TRIPOS>MOLECULE
*****
 41 43 0 0 0
SMALL
GASTEIGER

@<TRIPOS>ATOM
      1 C          63.5188   89.5697   12.8078 C.3     1  UNL1        0.1086
      2 O          63.4229   89.0115   11.4189 O.3     1  UNL1       -0.3826
      3 H          63.2314   89.7289   10.7946 H       1  UNL1        0.2107
      4 C          63.7988   88.1958   13.3406 C.3     1  UNL1        0.0485
      5 C          64.6245   88.0264   14.5813 C.3     1  UNL1        0.0061
      6 C          64.9045   86.6523   15.1141 C.3     1  UNL1        0.0217
      7 C          64.3589   85.4478   14.4061 C.3     1  UNL1        0.0934
      8 N          63.5332   85.6172   13.1653 N.am    1  UNL1       -0.2794
      9 C          62.9875   84.4126   12.4573 C.2     1  UNL1        0.2257
     10 O          62.1618   84.5820   11.2165 O.2     1  UNL1       -0.2749
     11 C          63.2532   86.9911   12.6326 C.3     1  UNL1        0.0960
     12 C          63.2675   83.0387   12.9901 C.3     1  UNL1        0.0867
     13 C          62.5171   81.8575   12.4500 C.3     1  UNL1        0.0264
     14 C          62.0545   80.7742   13.3787 C.3     1  UNL1        0.0656
     15 N          61.0706   81.0884   14.4664 N.3     1  UNL1       -0.3211
     16 H          61.5007   81.7202   15.1419 H       1  UNL1        0.1189
     17 H          60.7952   80.2255   14.9354 H       1  UNL1        0.1189
     18 C          64.6871   91.1212   14.5335 C.ar    1  UNL1        0.0257
     19 C          64.7831   91.6794   15.9224 C.ar    1  UNL1        0.1398
     20 F          65.8554   92.6728   16.2590 F       1  UNL1       -0.2042
     21 C          63.8068   91.2441   16.9748 C.ar    1  UNL1        0.0296
     22 C          62.7345   90.2507   16.6382 C.ar    1  UNL1        0.0021
     23 C          62.6386   89.6925   15.2491 C.ar    1  UNL1       -0.0019
     24 C          63.6148   90.1278   14.1968 C.ar    1  UNL1        0.0039
     25 C          66.1785   92.8464   11.2854 C.ar    1  UNL1       -0.0222
     26 C          67.6158   92.4271   11.3763 C.ar    1  UNL1       -0.0043
     27 C          68.0769   91.5725   12.5196 C.ar    1  UNL1       -0.0003
     28 C          67.1007   91.1372   13.5720 C.ar    1  UNL1        0.0000
     29 C          65.6634   91.5565   13.4811 C.ar    1  UNL1        0.0016
     30 C          65.2023   92.4111   12.3378 C.ar    1  UNL1       -0.0042
     31 C          66.6818   94.6255    9.4602 C.3     1  UNL1        0.0050
     32 C          65.7174   93.7010   10.1422 C.3     1  UNL1        0.0264
     33 C          63.2388   90.9436   12.2750 C.3     1  UNL1        0.0330
     34 C          62.5439   91.1093   10.9561 C.3     1  UNL1        0.0241
     35 C          61.0766   90.8203   10.8399 C.3     1  UNL1        0.0928
     36 N          60.5808   89.8653    9.7948 N.am    1  UNL1       -0.2707
     37 C          60.1965   88.4671   10.1784 C.2     1  UNL1        0.4017
     38 O          60.3082   88.0237   11.6071 O.2     1  UNL1       -0.2264
     39 H          60.5075   90.1563    8.8572 H       1  UNL1        0.1527
     40 O          59.7007   87.5121    9.1333 O.3     1  UNL1       -0.4306
     41 C          60.5936   86.4138    8.6368 C.3     1  UNL1        0.2573
@<TRIPOS>BOND
     1    31    32    1
     2    32    25    1
     3    25    26   ar
     4    26    27   ar
     5    27    28   ar
     6    28    29   ar
     7    29    18    1
     8    18    19   ar
     9    19    20    1
    10    19    21   ar
    11    21    22   ar
    12    22    23   ar
    13    23    24   ar
    14    24     1    1
    15     1     2    1
    16     1    33    1
    17    33    34    1
    18    34    35    1
    19    35    36    1
    20    36    37   am
    21    37    38    2
    22    37    40    1
    23    40    41    1
    24     4     1    1
    25     4     5    1
    26     5     6    1
    27     6     7    1
    28     7     8    1
    29     8     9   am
    30     9    10    2
    31     9    12    1
    32    12    13    1
    33    13    14    1
    34    14    15    1
    35     8    11    1
    36    29    30   ar
    37    30    25   ar
    38    24    18   ar
    39    11     4    1
    40     2     3    1
    41    36    39    1
    42    15    16    1
    43    15    17    1
@<TRIPOS>MOLECULE
*****
 41 43 0 0 0
SMALL
GASTEIGER

@<TRIPOS>ATOM
      1 C          63.0555   88.4295   12.4727 C.3     1  UNL1        0.1086
      2 O          64.4701   88.2429   12.9352 O.3     1  UNL1       -0.3826
      3 H          64.5438   87.4067   13.4211 H       1  UNL1        0.2107
      4 C          63.4347   89.7351   11.8392 C.3     1  UNL1        0.0485
      5 C          62.8323   90.1339   10.5246 C.3     1  UNL1        0.0061
      6 C          63.2116   91.4396    9.8911 C.3     1  UNL1        0.0217
      7 C          64.1933   92.3464   10.5721 C.3     1  UNL1        0.0934
      8 N          64.7958   91.9476   11.8866 N.am    1  UNL1       -0.2794
      9 C          65.7776   92.8546   12.5675 C.2     1  UNL1        0.2257
     10 O          66.3801   92.4558   13.8821 O.2     1  UNL1       -0.2749
     11 C          64.4166   90.6420   12.5201 C.3     1  UNL1        0.0960
     12 C          66.1569   94.1602   11.9340 C.3     1  UNL1        0.0867
     13 C          66.8975   94.1737   10.6297 C.3     1  UNL1        0.0264
     14 C          67.6945   92.9752   10.2072 C.3     1  UNL1        0.0656
     15 N          69.1248   93.1364    9.7853 N.3     1  UNL1       -0.3211
     16 H          69.1659   93.6809    8.9238 H       1  UNL1        0.1189
     17 H          69.5381   92.2174    9.6267 H       1  UNL1        0.1189
     18 C          61.0711   87.7136   10.9562 C.ar    1  UNL1        0.0257
     19 C          59.6565   87.9001   10.4937 C.ar    1  UNL1        0.1398
     20 F          59.0868   86.9976    9.4396 F       1  UNL1       -0.2042
     21 C          58.8114   88.9892   11.0852 C.ar    1  UNL1        0.0296
     22 C          59.3810   89.8917   12.1392 C.ar    1  UNL1        0.0021
     23 C          60.7958   89.7051   12.6017 C.ar    1  UNL1       -0.0019
     24 C          61.6408   88.6160   12.0102 C.ar    1  UNL1        0.0039
     25 C          62.9862   84.2631   10.5351 C.ar    1  UNL1       -0.0222
     26 C          63.6062   84.4464    9.1817 C.ar    1  UNL1       -0.0043
     27 C          63.3813   85.7187    8.4197 C.ar    1  UNL1       -0.0003
     28 C          62.5363   86.8078    9.0112 C.ar    1  UNL1        0.0000
     29 C          61.9162   86.6245   10.3646 C.ar    1  UNL1        0.0016
     30 C          62.1411   85.3522   11.1266 C.ar    1  UNL1       -0.0042
     31 C          64.5750   82.6676   11.8311 C.3     1  UNL1        0.0050
     32 C          63.2111   82.9908   11.2971 C.3     1  UNL1        0.0264
     33 C          62.6762   87.1238   13.1063 C.3     1  UNL1        0.0330
     34 C          63.6937   86.3450   13.8861 C.3     1  UNL1        0.0241
     35 C          63.2510   85.4076   14.9701 C.3     1  UNL1        0.0928
     36 N          62.2065   84.3699   14.6840 N.am    1  UNL1       -0.2707
     37 C          62.5414   82.9134   14.8120 C.2     1  UNL1        0.4017
     38 O          63.9209   82.4946   15.2262 O.2     1  UNL1       -0.2264
     39 H          61.3010   84.6447   14.4121 H       1  UNL1        0.1527
     40 O          61.4968   81.8756   14.5258 O.3     1  UNL1       -0.4306
     41 C          61.8617   80.6330   13.7689 C.3     1  UNL1        0.2573
@<TRIPOS>BOND
     1    31    32    1
     2    32    25    1
     3    25    26   ar
     4    26    27   ar
     5    27    28   ar
     6    28    29   ar
     7    29    18    1
     8    18    19   ar
     9    19    20    1
    10    19    21   ar
    11    21    22   ar
    12    22    23   ar
    13    23    24   ar
    14    24     1    1
    15     1     2    1
    16     1    33    1
    17    33    34    1
    18    34    35    1
    19    35    36    1
    20    36    37   am
    21    37    38    2
    22    37    40    1
    23    40    41    1
    24     4     1    1
    25     4     5    1
    26     5     6    1
    27     6     7    1
    28     7     8    1
    29     8     9   am
    30     9    10    2
    31     9    12    1
    32    12    13    1
    33    13    14    1
    34    14    15    1
    35     8    11    1
    36    29    30   ar
    37    30    25   ar
    38    24    18   ar
    39    11     4    1
    40     2     3    1
    41    36    39    1
    42    15    16    1
    43    15    17    1
@<TRIPOS>MOLECULE
*****
 41 43 0 0 0
SMALL
GASTEIGER

@<TRIPOS>ATOM
      1 C          62.3098   87.8359   11.8423 C.3     1  UNL1        0.1086
      2 O          63.3436   87.0267   12.5678 O.3     1  UNL1       -0.3826
      3 H          63.1295   86.0838   12.4898 H       1  UNL1        0.2107
      4 C          63.0266   89.0962   12.2266 C.3     1  UNL1        0.0485
      5 C          63.5046   90.0410   11.1641 C.3     1  UNL1        0.0061
      6 C          64.2214   91.3014   11.5486 C.3     1  UNL1        0.0217
      7 C          64.4601   91.6169   12.9954 C.3     1  UNL1        0.0934
      8 N          63.9820   90.6722   14.0579 N.am    1  UNL1       -0.2794
      9 C          64.2208   90.9878   15.5048 C.2     1  UNL1        0.2257
     10 O          63.7427   90.0430   16.5673 O.2     1  UNL1       -0.2749
     11 C          63.2653   89.4118   13.6735 C.3     1  UNL1        0.0960
     12 C          64.9375   92.2481   15.8892 C.3     1  UNL1        0.0867
     13 C          66.4365   92.2953   15.8657 C.3     1  UNL1        0.0264
     14 C          67.1436   93.1930   14.8938 C.3     1  UNL1        0.0656
     15 N          66.3781   94.2523   14.1577 N.3     1  UNL1       -0.3211
     16 H          65.7085   93.8116   13.5270 H       1  UNL1        0.1189
     17 H          67.0257   94.8270   13.6185 H       1  UNL1        0.1189
     18 C          60.9531   88.3386    9.6843 C.ar    1  UNL1        0.0257
     19 C          59.9194   89.1477    8.9587 C.ar    1  UNL1        0.1398
     20 F          59.5965   88.8412    7.5263 F       1  UNL1       -0.2042
     21 C          59.2084   90.2636    9.6656 C.ar    1  UNL1        0.0296
     22 C          59.5313   90.5702   11.0980 C.ar    1  UNL1        0.0021
     23 C          60.5651   89.7609   11.8235 C.ar    1  UNL1       -0.0019
     24 C          61.2760   88.6451   11.1167 C.ar    1  UNL1        0.0039
     25 C          61.6212   85.2145    7.3296 C.ar    1  UNL1       -0.0222
     26 C          63.0858   84.9911    7.5638 C.ar    1  UNL1       -0.0043
     27 C          63.8396   85.8835    8.5049 C.ar    1  UNL1       -0.0003
     28 C          63.1287   86.9993    9.2117 C.ar    1  UNL1        0.0000
     29 C          61.6641   87.2227    8.9775 C.ar    1  UNL1        0.0016
     30 C          60.9103   86.3303    8.0364 C.ar    1  UNL1       -0.0042
     31 C          61.5042   83.8765    5.1057 C.3     1  UNL1        0.0050
     32 C          60.8674   84.3222    6.3886 C.3     1  UNL1        0.0264
     33 C          61.5931   86.5755   11.4579 C.3     1  UNL1        0.0330
     34 C          61.9643   85.2744   12.1054 C.3     1  UNL1        0.0241
     35 C          62.5925   84.1833   11.2900 C.3     1  UNL1        0.0928
     36 N          62.6242   82.7784   11.8147 N.am    1  UNL1       -0.2707
     37 C          63.6148   82.3955   12.8739 C.2     1  UNL1        0.4017
     38 O          64.5739   83.4175   13.4084 O.2     1  UNL1       -0.2264
     39 H          61.9947   82.1076   11.4639 H       1  UNL1        0.1527
     40 O          63.6465   80.9906   13.3985 O.3     1  UNL1       -0.4306
     41 C          62.3784   80.1942   13.4867 C.3     1  UNL1        0.2573
@<TRIPOS>BOND
     1    31    32    1
     2    32    25    1
     3    25    26   ar
     4    26    27   ar
     5    27    28   ar
     6    28    29   ar
     7    29    18    1
     8    18    19   ar
     9    19    20    1
    10    19    21   ar
    11    21    22   ar
    12    22    23   ar
    13    23    24   ar
    14    24     1    1
    15     1     2    1
    16     1    33    1
    17    33    34    1
    18    34    35    1
    19    35    36    1
    20    36    37   am
    21    37    38    2
    22    37    40    1
    23    40    41    1
    24     4     1    1
    25     4     5    1
    26     5     6    1
    27     6     7    1
    28     7     8    1
    29     8     9   am
    30     9    10    2
    31     9    12    1
    32    12    13    1
    33    13    14    1
    34    14    15    1
    35     8    11    1
    36    29    30   ar
    37    30    25   ar
    38    24    18   ar
    39    11     4    1
    40     2     3    1
    41    36    39    1
    42    15    16    1
    43    15    17    1
@<TRIPOS>MOLECULE
*****
 41 43 0 0 0
SMALL
GASTEIGER

@<TRIPOS>ATOM
      1 C          62.6439   86.9174   11.0127 C.3     1  UNL1        0.1086
      2 O          63.2953   87.2403   12.3246 O.3     1  UNL1       -0.3826
      3 H          63.3252   88.2027   12.4425 H       1  UNL1        0.2107
      4 C          62.8252   85.4532   11.2831 C.3     1  UNL1        0.0485
      5 C          63.3821   84.5569   10.2169 C.3     1  UNL1        0.0061
      6 C          63.5634   83.0926   10.4874 C.3     1  UNL1        0.0217
      7 C          63.1878   82.5247   11.8239 C.3     1  UNL1        0.0934
      8 N          62.6310   83.4209   12.8901 N.am    1  UNL1       -0.2794
      9 C          62.2554   82.8529   14.2266 C.2     1  UNL1        0.2257
     10 O          61.6985   83.7492   15.2928 O.2     1  UNL1       -0.2749
     11 C          62.4497   84.8851   12.6196 C.3     1  UNL1        0.0960
     12 C          62.4367   81.3887   14.4971 C.3     1  UNL1        0.0867
     13 C          61.3920   80.4088   14.0517 C.3     1  UNL1        0.0264
     14 C          59.9384   80.7667   14.1480 C.3     1  UNL1        0.0656
     15 N          58.9418   79.7408   14.6000 N.3     1  UNL1       -0.3211
     16 H          58.8879   78.9919   13.9096 H       1  UNL1        0.1189
     17 H          58.0256   80.1778   14.6999 H       1  UNL1        0.1189
     18 C          60.7449   87.3160    9.2849 C.ar    1  UNL1        0.0257
     19 C          60.0934   86.9930    7.9730 C.ar    1  UNL1        0.1398
     20 F          58.8459   87.7147    7.5573 F       1  UNL1       -0.2042
     21 C          60.6895   85.9483    7.0767 C.ar    1  UNL1        0.0296
     22 C          61.9371   85.2267    7.4923 C.ar    1  UNL1        0.0021
     23 C          62.5886   85.5497    8.8044 C.ar    1  UNL1       -0.0019
     24 C          61.9925   86.5943    9.7006 C.ar    1  UNL1        0.0039
     25 C          58.8552   88.9993   12.3420 C.ar    1  UNL1       -0.0222
     26 C          58.9566   90.4499   11.9740 C.ar    1  UNL1       -0.0043
     27 C          59.6541   90.8558   10.7096 C.ar    1  UNL1       -0.0003
     28 C          60.2502   89.8112    9.8133 C.ar    1  UNL1        0.0000
     29 C          60.1488   88.3607   10.1813 C.ar    1  UNL1        0.0016
     30 C          59.4512   87.9547   11.4457 C.ar    1  UNL1       -0.0042
     31 C          56.7394   88.1073   13.5577 C.3     1  UNL1        0.0050
     32 C          58.1576   88.5933   13.6064 C.3     1  UNL1        0.0264
     33 C          62.4626   88.3816   10.7422 C.3     1  UNL1        0.0330
     34 C          63.3318   89.3862   11.4389 C.3     1  UNL1        0.0241
     35 C          62.7172   90.4022   12.3554 C.3     1  UNL1        0.0928
     36 N          62.2132   89.9866   13.7057 N.am    1  UNL1       -0.2707
     37 C          63.1370   89.9986   14.8873 C.2     1  UNL1        0.4017
     38 O          64.5649   90.4262   14.7187 O.2     1  UNL1       -0.2264
     39 H          61.2761   89.7060   13.8163 H       1  UNL1        0.1527
     40 O          62.6330   89.5830   16.2376 O.3     1  UNL1       -0.4306
     41 C          63.0995   88.2947   16.8484 C.3     1  UNL1        0.2573
@<TRIPOS>BOND
     1    31    32    1
     2    32    25    1
     3    25    26   ar
     4    26    27   ar
     5    27    28   ar
     6    28    29   ar
     7    29    18    1
     8    18    19   ar
     9    19    20    1
    10    19    21   ar
    11    21    22   ar
    12    22    23   ar
    13    23    24   ar
    14    24     1    1
    15     1     2    1
    16     1    33    1
    17    33    34    1
    18    34    35    1
    19    35    36    1
    20    36    37   am
    21    37    38    2
    22    37    40    1
    23    40    41    1
    24     4     1    1
    25     4     5    1
    26     5     6    1
    27     6     7    1
    28     7     8    1
    29     8     9   am
    30     9    10    2
    31     9    12    1
    32    12    13    1
    33    13    14    1
    34    14    15    1
    35     8    11    1
    36    29    30   ar
    37    30    25   ar
    38    24    18   ar
    39    11     4    1
    40     2     3    1
    41    36    39    1
    42    15    16    1
    43    15    17    1
@<TRIPOS>MOLECULE
*****
 41 43 0 0 0
SMALL
GASTEIGER

@<TRIPOS>ATOM
      1 C          62.4969   86.9760   12.2095 C.3     1  UNL1        0.1086
      2 O          63.5078   86.8500   13.3104 O.3     1  UNL1       -0.3826
      3 H          63.4341   85.9729   13.7181 H       1  UNL1        0.2107
      4 C          62.9751   88.3700   11.9300 C.3     1  UNL1        0.0485
      5 C          62.7077   89.0013   10.5958 C.3     1  UNL1        0.0061
      6 C          63.1860   90.3953   10.3164 C.3     1  UNL1        0.0217
      7 C          63.9316   91.1580   11.3710 C.3     1  UNL1        0.0934
      8 N          64.1990   90.5267   12.7052 N.am    1  UNL1       -0.2794
      9 C          64.9447   91.2894   13.7599 C.2     1  UNL1        0.2257
     10 O          65.2121   90.6581   15.0940 O.2     1  UNL1       -0.2749
     11 C          63.7208   89.1327   12.9847 C.3     1  UNL1        0.0960
     12 C          65.4229   92.6833   13.4804 C.3     1  UNL1        0.0867
     13 C          66.8609   93.0431   13.7101 C.3     1  UNL1        0.0264
     14 C          67.3617   93.2780   15.1044 C.3     1  UNL1        0.0656
     15 N          66.4228   93.1612   16.2683 N.3     1  UNL1       -0.3211
     16 H          65.7196   93.8981   16.2131 H       1  UNL1        0.1189
     17 H          66.9465   93.2555   17.1384 H       1  UNL1        0.1189
     18 C          61.4176   86.0615   10.0302 C.ar    1  UNL1        0.0257
     19 C          60.4067   86.1876    8.9292 C.ar    1  UNL1        0.1398
     20 F          60.3384   85.1470    7.8510 F       1  UNL1       -0.2042
     21 C          59.4642   87.3543    8.9064 C.ar    1  UNL1        0.0296
     22 C          59.5325   88.3949    9.9846 C.ar    1  UNL1        0.0021
     23 C          60.5435   88.2688   11.0856 C.ar    1  UNL1       -0.0019
     24 C          61.4860   87.1021   11.1084 C.ar    1  UNL1        0.0039
     25 C          62.9889   82.5269   10.9177 C.ar    1  UNL1       -0.0222
     26 C          64.2452   82.5615   10.0988 C.ar    1  UNL1       -0.0043
     27 C          64.5589   83.7628    9.2570 C.ar    1  UNL1       -0.0003
     28 C          63.6164   84.9294    9.2342 C.ar    1  UNL1        0.0000
     29 C          62.3602   84.8948   10.0531 C.ar    1  UNL1        0.0016
     30 C          62.0464   83.6936   10.8949 C.ar    1  UNL1       -0.0042
     31 C          63.4076   81.1016   13.0492 C.3     1  UNL1        0.0050
     32 C          62.6752   81.3257   11.7595 C.3     1  UNL1        0.0264
     33 C          62.0187   85.5821   12.4889 C.3     1  UNL1        0.0330
     34 C          62.7914   84.6969   13.4213 C.3     1  UNL1        0.0241
     35 C          62.1603   84.2159   14.6942 C.3     1  UNL1        0.0928
     36 N          61.9641   85.1647   15.8393 N.am    1  UNL1       -0.2707
     37 C          63.1436   85.8728   16.4371 C.2     1  UNL1        0.4017
     38 O          64.5193   85.6322   15.8897 O.2     1  UNL1       -0.2264
     39 H          61.0612   85.3226   16.1986 H       1  UNL1        0.1527
     40 O          62.9474   86.8216   17.5822 O.3     1  UNL1       -0.4306
     41 C          63.0149   88.3020   17.3496 C.3     1  UNL1        0.2573
@<TRIPOS>BOND
     1    31    32    1
     2    32    25    1
     3    25    26   ar
     4    26    27   ar
     5    27    28   ar
     6    28    29   ar
     7    29    18    1
     8    18    19   ar
     9    19    20    1
    10    19    21   ar
    11    21    22   ar
    12    22    23   ar
    13    23    24   ar
    14    24     1    1
    15     1     2    1
    16     1    33    1
    17    33    34    1
    18    34    35    1
    19    35    36    1
    20    36    37   am
    21    37    38    2
    22    37    40    1
    23    40    41    1
    24     4     1    1
    25     4     5    1
    26     5     6    1
    27     6     7    1
    28     7     8    1
    29     8     9   am
    30     9    10    2
    31     9    12    1
    32    12    13    1
    33    13    14    1
    34    14    15    1
    35     8    11    1
    36    29    30   ar
    37    30    25   ar
    38    24    18   ar
    39    11     4    1
    40     2     3    1
    41    36    39    1
    42    15    16    1
    43    15    17    1
@<TRIPOS>MOLECULE
*****
 41 43 0 0 0
SMALL
GASTEIGER

@<TRIPOS>ATOM
      1 C          62.4138   87.5492   12.0637 C.3     1  UNL1        0.1086
      2 O          63.3677   86.5977   12.7230 O.3     1  UNL1       -0.3826
      3 H          63.0639   85.6870   12.5838 H       1  UNL1        0.2107
      4 C          63.2493   88.7064   12.5251 C.3     1  UNL1        0.0485
      5 C          63.8568   88.6932   13.8965 C.3     1  UNL1        0.0061
      6 C          64.6923   89.8505   14.3577 C.3     1  UNL1        0.0217
      7 C          64.9203   91.0208   13.4476 C.3     1  UNL1        0.0934
      8 N          64.3127   91.0340   12.0762 N.am    1  UNL1       -0.2794
      9 C          64.5407   92.2044   11.1661 C.2     1  UNL1        0.2257
     10 O          63.9332   92.2175    9.7947 O.2     1  UNL1       -0.2749
     11 C          63.4773   89.8768   11.6149 C.3     1  UNL1        0.0960
     12 C          65.3762   93.3615   11.6274 C.3     1  UNL1        0.0867
     13 C          66.2141   94.1214   10.6423 C.3     1  UNL1        0.0264
     14 C          66.2618   95.6197   10.6965 C.3     1  UNL1        0.0656
     15 N          65.8270   96.3395   11.9387 N.3     1  UNL1       -0.3211
     16 H          64.8277   96.1952   12.0831 H       1  UNL1        0.1189
     17 H          66.0154   97.3368   11.8373 H       1  UNL1        0.1189
     18 C          61.1316   88.3456    9.9491 C.ar    1  UNL1        0.0257
     19 C          60.1777   89.2972    9.2898 C.ar    1  UNL1        0.1398
     20 F          59.8494   89.1420    7.8344 F       1  UNL1       -0.2042
     21 C          59.5521   90.4039   10.0860 C.ar    1  UNL1        0.0296
     22 C          59.8803   90.5591   11.5414 C.ar    1  UNL1        0.0021
     23 C          60.8343   89.6075   12.2006 C.ar    1  UNL1       -0.0019
     24 C          61.4598   88.5008   11.4045 C.ar    1  UNL1        0.0039
     25 C          61.5433   85.3150    7.4201 C.ar    1  UNL1       -0.0222
     26 C          63.0083   85.0255    7.5608 C.ar    1  UNL1       -0.0043
     27 C          63.8478   85.8426    8.4975 C.ar    1  UNL1       -0.0003
     28 C          63.2222   86.9493    9.2936 C.ar    1  UNL1        0.0000
     29 C          61.7572   87.2389    9.1530 C.ar    1  UNL1        0.0016
     30 C          60.9177   86.4217    8.2162 C.ar    1  UNL1       -0.0042
     31 C          61.3256   83.8749    5.2687 C.3     1  UNL1        0.0050
     32 C          60.7039   84.4979    6.4833 C.3     1  UNL1        0.0264
     33 C          61.5783   86.3920   11.6024 C.3     1  UNL1        0.0330
     34 C          61.8446   85.0152   12.1351 C.3     1  UNL1        0.0241
     35 C          62.6002   84.0222   11.3027 C.3     1  UNL1        0.0928
     36 N          62.6665   82.5848   11.7262 N.am    1  UNL1       -0.2707
     37 C          63.5189   82.1855   12.8940 C.2     1  UNL1        0.4017
     38 O          64.3051   83.2237   13.6384 O.2     1  UNL1       -0.2264
     39 H          62.1505   81.9034   11.2376 H       1  UNL1        0.1527
     40 O          63.5852   80.7480   13.3175 O.3     1  UNL1       -0.4306
     41 C          62.3235   79.9491   13.4596 C.3     1  UNL1        0.2573
@<TRIPOS>BOND
     1    31    32    1
     2    32    25    1
     3    25    26   ar
     4    26    27   ar
     5    27    28   ar
     6    28    29   ar
     7    29    18    1
     8    18    19   ar
     9    19    20    1
    10    19    21   ar
    11    21    22   ar
    12    22    23   ar
    13    23    24   ar
    14    24     1    1
    15     1     2    1
    16     1    33    1
    17    33    34    1
    18    34    35    1
    19    35    36    1
    20    36    37   am
    21    37    38    2
    22    37    40    1
    23    40    41    1
    24     4     1    1
    25     4     5    1
    26     5     6    1
    27     6     7    1
    28     7     8    1
    29     8     9   am
    30     9    10    2
    31     9    12    1
    32    12    13    1
    33    13    14    1
    34    14    15    1
    35     8    11    1
    36    29    30   ar
    37    30    25   ar
    38    24    18   ar
    39    11     4    1
    40     2     3    1
    41    36    39    1
    42    15    16    1
    43    15    17    1
@<TRIPOS>MOLECULE
*****
 41 43 0 0 0
SMALL
GASTEIGER

@<TRIPOS>ATOM
      1 C          63.0016   88.1396   12.4808 C.3     1  UNL1        0.1086
      2 O          64.3592   87.8526   13.0505 O.3     1  UNL1       -0.3826
      3 H          64.3654   86.9639   13.4393 H       1  UNL1        0.2107
      4 C          63.4714   89.4957   12.0446 C.3     1  UNL1        0.0485
      5 C          63.0696   90.0328   10.7029 C.3     1  UNL1        0.0061
      6 C          63.5394   91.3890   10.2667 C.3     1  UNL1        0.0217
      7 C          64.4109   92.2079   11.1721 C.3     1  UNL1        0.0934
      8 N          64.8127   91.6707   12.5138 N.am    1  UNL1       -0.2794
      9 C          65.6843   92.4897   13.4192 C.2     1  UNL1        0.2257
     10 O          66.0860   91.9525   14.7608 O.2     1  UNL1       -0.2749
     11 C          64.3429   90.3146   12.9500 C.3     1  UNL1        0.0960
     12 C          66.1540   93.8458   12.9830 C.3     1  UNL1        0.0867
     13 C          66.5278   94.0849   11.5501 C.3     1  UNL1        0.0264
     14 C          66.4076   95.4600   10.9631 C.3     1  UNL1        0.0656
     15 N          65.7148   96.5458   11.7319 N.3     1  UNL1       -0.3211
     16 H          64.7261   96.3151   11.8300 H       1  UNL1        0.1189
     17 H          65.8096   97.4299   11.2321 H       1  UNL1        0.1189
     18 C          61.1078   87.5859   10.7905 C.ar    1  UNL1        0.0257
     19 C          59.7502   87.8729   10.2208 C.ar    1  UNL1        0.1398
     20 F          59.2140   87.0321    9.1003 F       1  UNL1       -0.2042
     21 C          58.9288   89.0008   10.7716 C.ar    1  UNL1        0.0296
     22 C          59.4650   89.8416   11.8921 C.ar    1  UNL1        0.0021
     23 C          60.8227   89.5545   12.4618 C.ar    1  UNL1       -0.0019
     24 C          61.6440   88.4267   11.9111 C.ar    1  UNL1        0.0039
     25 C          62.9017   84.0601   10.4727 C.ar    1  UNL1       -0.0222
     26 C          63.5719   84.2024    9.1384 C.ar    1  UNL1       -0.0043
     27 C          63.4208   85.4724    8.3547 C.ar    1  UNL1       -0.0003
     28 C          62.5994   86.6003    8.9054 C.ar    1  UNL1        0.0000
     29 C          61.9292   86.4580   10.2398 C.ar    1  UNL1        0.0016
     30 C          62.0803   85.1880   11.0234 C.ar    1  UNL1       -0.0042
     31 C          64.4176   82.3137   11.6567 C.3     1  UNL1        0.0050
     32 C          63.0528   82.7901   11.2563 C.3     1  UNL1        0.0264
     33 C          62.5319   86.7835   12.9170 C.3     1  UNL1        0.0330
     34 C          63.4994   85.8170   13.5332 C.3     1  UNL1        0.0241
     35 C          63.7161   85.8163   15.0175 C.3     1  UNL1        0.0928
     36 N          63.9263   87.1108   15.7454 N.am    1  UNL1       -0.2707
     37 C          62.9637   87.5349   16.8147 C.2     1  UNL1        0.4017
     38 O          61.7907   86.6644   17.1561 O.2     1  UNL1       -0.2264
     39 H          64.6961   87.6822   15.5213 H       1  UNL1        0.1527
     40 O          63.1739   88.8295   17.5426 O.3     1  UNL1       -0.4306
     41 C          63.3655   90.1014   16.7707 C.3     1  UNL1        0.2573
@<TRIPOS>BOND
     1    31    32    1
     2    32    25    1
     3    25    26   ar
     4    26    27   ar
     5    27    28   ar
     6    28    29   ar
     7    29    18    1
     8    18    19   ar
     9    19    20    1
    10    19    21   ar
    11    21    22   ar
    12    22    23   ar
    13    23    24   ar
    14    24     1    1
    15     1     2    1
    16     1    33    1
    17    33    34    1
    18    34    35    1
    19    35    36    1
    20    36    37   am
    21    37    38    2
    22    37    40    1
    23    40    41    1
    24     4     1    1
    25     4     5    1
    26     5     6    1
    27     6     7    1
    28     7     8    1
    29     8     9   am
    30     9    10    2
    31     9    12    1
    32    12    13    1
    33    13    14    1
    34    14    15    1
    35     8    11    1
    36    29    30   ar
    37    30    25   ar
    38    24    18   ar
    39    11     4    1
    40     2     3    1
    41    36    39    1
    42    15    16    1
    43    15    17    1
@<TRIPOS>MOLECULE
*****
 41 43 0 0 0
SMALL
GASTEIGER

@<TRIPOS>ATOM
      1 C          62.6491   86.9394   10.9694 C.3     1  UNL1        0.1086
      2 O          63.3326   87.2650   12.2643 O.3     1  UNL1       -0.3826
      3 H          63.3899   88.2279   12.3665 H       1  UNL1        0.2107
      4 C          62.7968   85.4752   11.2596 C.3     1  UNL1        0.0485
      5 C          63.3149   84.5491   10.1995 C.3     1  UNL1        0.0061
      6 C          63.4625   83.0848   10.4897 C.3     1  UNL1        0.0217
      7 C          63.0922   82.5468   11.8400 C.3     1  UNL1        0.0934
      8 N          62.5741   83.4729   12.9001 N.am    1  UNL1       -0.2794
      9 C          62.2037   82.9348   14.2504 C.2     1  UNL1        0.2257
     10 O          61.6856   83.8610   15.3105 O.2     1  UNL1       -0.2749
     11 C          62.4264   84.9371   12.6099 C.3     1  UNL1        0.0960
     12 C          62.3514   81.4706   14.5406 C.3     1  UNL1        0.0867
     13 C          61.3342   80.4972   14.0232 C.3     1  UNL1        0.0264
     14 C          59.8708   80.7826   14.1889 C.3     1  UNL1        0.0656
     15 N          58.9332   79.6832   14.5916 N.3     1  UNL1       -0.3211
     16 H          58.8881   78.9857   13.8487 H       1  UNL1        0.1189
     17 H          58.0033   80.0709   14.7510 H       1  UNL1        0.1189
     18 C          60.6964   87.3195    9.2982 C.ar    1  UNL1        0.0257
     19 C          60.0129   86.9939    8.0034 C.ar    1  UNL1        0.1398
     20 F          58.7438   87.6996    7.6271 F       1  UNL1       -0.2042
     21 C          60.5983   85.9626    7.0848 C.ar    1  UNL1        0.0296
     22 C          61.8673   85.2569    7.4611 C.ar    1  UNL1        0.0021
     23 C          62.5509   85.5826    8.7560 C.ar    1  UNL1       -0.0019
     24 C          61.9655   86.6138    9.6745 C.ar    1  UNL1        0.0039
     25 C          58.9640   88.9706   12.4640 C.ar    1  UNL1       -0.0222
     26 C          58.9402   90.4132   12.0540 C.ar    1  UNL1       -0.0043
     27 C          59.5019   90.8246   10.7254 C.ar    1  UNL1       -0.0003
     28 C          60.0873   89.7934    9.8068 C.ar    1  UNL1        0.0000
     29 C          60.1110   88.3508   10.2168 C.ar    1  UNL1        0.0016
     30 C          59.5494   87.9394   11.5454 C.ar    1  UNL1       -0.0042
     31 C          59.1215   88.9256   15.0569 C.3     1  UNL1        0.0050
     32 C          58.4023   88.5591   13.7927 C.3     1  UNL1        0.0264
     33 C          62.5014   88.4036   10.6793 C.3     1  UNL1        0.0330
     34 C          63.1192   89.4163   11.5974 C.3     1  UNL1        0.0241
     35 C          63.0411   90.8767   11.2645 C.3     1  UNL1        0.0928
     36 N          64.2980   91.6597   11.0251 N.am    1  UNL1       -0.2707
     37 C          65.0650   92.2201   12.1859 C.2     1  UNL1        0.4017
     38 O          64.5752   91.9976   13.5862 O.2     1  UNL1       -0.2264
     39 H          64.6195   91.8057   10.1061 H       1  UNL1        0.1527
     40 O          66.3219   93.0031   11.9466 O.3     1  UNL1       -0.4306
     41 C          66.2510   94.4840   11.7184 C.3     1  UNL1        0.2573
@<TRIPOS>BOND
     1    31    32    1
     2    32    25    1
     3    25    26   ar
     4    26    27   ar
     5    27    28   ar
     6    28    29   ar
     7    29    18    1
     8    18    19   ar
     9    19    20    1
    10    19    21   ar
    11    21    22   ar
    12    22    23   ar
    13    23    24   ar
    14    24     1    1
    15     1     2    1
    16     1    33    1
    17    33    34    1
    18    34    35    1
    19    35    36    1
    20    36    37   am
    21    37    38    2
    22    37    40    1
    23    40    41    1
    24     4     1    1
    25     4     5    1
    26     5     6    1
    27     6     7    1
    28     7     8    1
    29     8     9   am
    30     9    10    2
    31     9    12    1
    32    12    13    1
    33    13    14    1
    34    14    15    1
    35     8    11    1
    36    29    30   ar
    37    30    25   ar
    38    24    18   ar
    39    11     4    1
    40     2     3    1
    41    36    39    1
    42    15    16    1
    43    15    17    1
@<TRIPOS>MOLECULE
*****
 41 43 0 0 0
SMALL
GASTEIGER

@<TRIPOS>ATOM
      1 C          62.5444   89.2747   10.5907 C.3     1  UNL1        0.1086
      2 O          63.6210   89.3027    9.5466 O.3     1  UNL1       -0.3826
      3 H          63.8240   90.2227    9.3161 H       1  UNL1        0.2107
      4 C          62.5921   87.7755   10.5997 C.3     1  UNL1        0.0485
      5 C          62.4973   87.0143    9.3107 C.3     1  UNL1        0.0061
      6 C          62.5450   85.5150    9.3197 C.3     1  UNL1        0.0217
      7 C          62.6876   84.7770   10.6178 C.3     1  UNL1        0.0934
      8 N          62.7824   85.5382   11.9068 N.am    1  UNL1       -0.2794
      9 C          62.9250   84.8001   13.2049 C.2     1  UNL1        0.2257
     10 O          63.0199   85.5613   14.4939 O.2     1  UNL1       -0.2749
     11 C          62.7347   87.0374   11.8978 C.3     1  UNL1        0.0960
     12 C          62.9728   83.3010   13.2139 C.3     1  UNL1        0.0867
     13 C          62.2979   82.5357   14.3134 C.3     1  UNL1        0.0264
     14 C          61.8365   81.1286   14.0741 C.3     1  UNL1        0.0656
     15 N          60.3911   80.7719   14.2573 N.3     1  UNL1       -0.3211
     16 H          60.1389   80.8693   15.2409 H       1  UNL1        0.1189
     17 H          60.2387   79.8078   13.9611 H       1  UNL1        0.1189
     18 C          60.0682   88.8596   11.2587 C.ar    1  UNL1        0.0257
     19 C          58.9915   88.8315   12.3027 C.ar    1  UNL1        0.1398
     20 F          57.5920   88.4445   11.9266 F       1  UNL1       -0.2042
     21 C          59.3144   89.1905   13.7229 C.ar    1  UNL1        0.0296
     22 C          60.7140   89.5775   14.0990 C.ar    1  UNL1        0.0021
     23 C          61.7907   89.6055   13.0549 C.ar    1  UNL1       -0.0019
     24 C          61.4677   89.2466   11.6348 C.ar    1  UNL1        0.0039
     25 C          59.5481   89.1736    7.3368 C.ar    1  UNL1       -0.0222
     26 C          59.0996   87.7829    6.9981 C.ar    1  UNL1       -0.0043
     27 C          58.9739   86.7511    8.0796 C.ar    1  UNL1       -0.0003
     28 C          59.2967   87.1100    9.4997 C.ar    1  UNL1        0.0000
     29 C          59.7453   88.5007    9.8384 C.ar    1  UNL1        0.0016
     30 C          59.8710   89.5325    8.7569 C.ar    1  UNL1       -0.0042
     31 C          58.4464   90.7210    5.5643 C.3     1  UNL1        0.0050
     32 C          59.6738   90.2054    6.2553 C.3     1  UNL1        0.0264
     33 C          62.4967   90.7738   10.5817 C.3     1  UNL1        0.0330
     34 C          63.6250   91.5566    9.9781 C.3     1  UNL1        0.0241
     35 C          64.6106   92.2573   10.8655 C.3     1  UNL1        0.0928
     36 N          65.3941   93.4242   10.3416 N.am    1  UNL1       -0.2707
     37 C          66.8723   93.5042   10.5830 C.2     1  UNL1        0.4017
     38 O          67.5672   92.4172   11.3485 O.2     1  UNL1       -0.2264
     39 H          64.9381   94.1376    9.8392 H       1  UNL1        0.1527
     40 O          67.6558   94.6711   10.0591 O.3     1  UNL1       -0.4306
     41 C          66.9651   95.7463    9.2737 C.3     1  UNL1        0.2573
@<TRIPOS>BOND
     1    31    32    1
     2    32    25    1
     3    25    26   ar
     4    26    27   ar
     5    27    28   ar
     6    28    29   ar
     7    29    18    1
     8    18    19   ar
     9    19    20    1
    10    19    21   ar
    11    21    22   ar
    12    22    23   ar
    13    23    24   ar
    14    24     1    1
    15     1     2    1
    16     1    33    1
    17    33    34    1
    18    34    35    1
    19    35    36    1
    20    36    37   am
    21    37    38    2
    22    37    40    1
    23    40    41    1
    24     4     1    1
    25     4     5    1
    26     5     6    1
    27     6     7    1
    28     7     8    1
    29     8     9   am
    30     9    10    2
    31     9    12    1
    32    12    13    1
    33    13    14    1
    34    14    15    1
    35     8    11    1
    36    29    30   ar
    37    30    25   ar
    38    24    18   ar
    39    11     4    1
    40     2     3    1
    41    36    39    1
    42    15    16    1
    43    15    17    1
