@<TRIPOS>MOLECULE
*****
 30 33 0 0 0
SMALL
GASTEIGER

@<TRIPOS>ATOM
      1 C          61.8368   86.3766   10.8077 C.ar    1  UNL1        0.0479
      2 C          62.1450   87.8208   11.0708 C.ar    1  UNL1        0.0145
      3 C          61.6035   88.8814   10.1587 C.ar    1  UNL1        0.0013
      4 C          60.7538   88.4979    8.9837 C.ar    1  UNL1        0.0001
      5 C          60.4456   87.0537    8.7206 C.ar    1  UNL1        0.0013
      6 C          60.9871   85.9930    9.6327 C.ar    1  UNL1        0.0145
      7 C          63.8811   80.6872   14.0791 C.3     1  UNL1        0.0948
      8 C          64.0028   82.1340   14.4559 C.2     1  UNL1        0.2262
      9 O          64.6660   82.5201   15.7447 O.2     1  UNL1       -0.2749
     10 N          63.4613   83.1946   13.5439 N.am    1  UNL1       -0.2760
     11 C          62.7981   82.8085   12.2551 C.3     1  UNL1        0.1148
     12 C          62.2566   83.8692   11.3430 C.3     1  UNL1        0.1123
     13 N          62.3783   85.3159   11.7198 N.pl3   1  UNL1       -0.3041
     14 C          63.0415   85.7021   13.0086 C.3     1  UNL1        0.1123
     15 C          63.5830   84.6414   13.9206 C.3     1  UNL1        0.1148
     16 C          60.2123   89.5585    8.0716 C.2     1  UNL1        0.0000
     17 C          59.8921   89.2281    6.6440 C.2     1  UNL1        0.0001
     18 C          59.3506   90.2887    5.7319 C.ar    1  UNL1        0.0022
     19 C          57.8860   90.6126    5.7447 C.ar    1  UNL1        0.0296
     20 C          57.3445   91.6733    4.8326 C.ar    1  UNL1        0.1401
     21 F          55.8800   91.9972    4.8453 F       1  UNL1       -0.2042
     22 C          58.2676   92.4100    3.9079 C.ar    1  UNL1        0.0296
     23 C          59.7321   92.0861    3.8952 C.ar    1  UNL1        0.0023
     24 C          60.2736   91.0255    4.8072 C.ar    1  UNL1        0.0001
     25 C          60.6552   92.8229    2.9704 C.ar    1  UNL1        0.0032
     26 C          62.0698   92.3563    2.7942 C.ar    1  UNL1        0.0207
     27 C          62.9929   93.0932    1.8694 C.ar    1  UNL1        0.0989
     28 N          62.5012   94.2965    1.1209 N.ar    1  UNL1       -0.2423
     29 C          61.0866   94.7630    1.2971 C.ar    1  UNL1        0.0989
     30 C          60.1636   94.0263    2.2219 C.ar    1  UNL1        0.0207
@<TRIPOS>BOND
     1     7     8    1
     2     8     9    2
     3     8    10   am
     4    10    11    1
     5    11    12    1
     6    12    13    1
     7    13     1    1
     8     1     2   ar
     9     2     3   ar
    10     3     4   ar
    11     4    16    1
    12    16    17    2
    13    17    18    1
    14    18    19   ar
    15    19    20   ar
    16    20    21    1
    17    20    22   ar
    18    22    23   ar
    19    23    25    1
    20    25    26   ar
    21    26    27   ar
    22    27    28   ar
    23    28    29   ar
    24    29    30   ar
    25    23    24   ar
    26     4     5   ar
    27     5     6   ar
    28    13    14    1
    29    14    15    1
    30    15    10    1
    31     6     1   ar
    32    24    18   ar
    33    30    25   ar
@<TRIPOS>MOLECULE
*****
 30 33 0 0 0
SMALL
GASTEIGER

@<TRIPOS>ATOM
      1 C          59.9145   92.3751    3.1907 C.ar    1  UNL1        0.0479
      2 C          58.6104   92.1471    3.8959 C.ar    1  UNL1        0.0145
      3 C          58.5588   91.2716    5.1127 C.ar    1  UNL1        0.0013
      4 C          59.8113   90.6241    5.6245 C.ar    1  UNL1        0.0001
      5 C          61.1154   90.8522    4.9194 C.ar    1  UNL1        0.0013
      6 C          61.1670   91.7277    3.7025 C.ar    1  UNL1        0.0145
      7 C          61.2442   96.8560   -1.8495 C.3     1  UNL1        0.0948
      8 C          60.1208   95.8771   -1.6769 C.2     1  UNL1        0.2262
      9 O          59.0490   95.7738   -2.7211 O.2     1  UNL1       -0.2749
     10 N          60.0692   95.0016   -0.4600 N.am    1  UNL1       -0.2760
     11 C          61.1410   95.1050    0.5843 C.3     1  UNL1        0.1148
     12 C          61.0894   94.2295    1.8012 C.3     1  UNL1        0.1123
     13 N          59.9661   93.2506    1.9738 N.pl3   1  UNL1       -0.3041
     14 C          58.8943   93.1473    0.9295 C.3     1  UNL1        0.1123
     15 C          58.9459   94.0228   -0.2874 C.3     1  UNL1        0.1148
     16 C          59.7597   89.7486    6.8414 C.2     1  UNL1        0.0000
     17 C          60.6590   90.0322    8.0080 C.2     1  UNL1        0.0001
     18 C          60.6074   89.1567    9.2249 C.ar    1  UNL1        0.0022
     19 C          59.7425   89.5405   10.3889 C.ar    1  UNL1        0.0296
     20 C          59.6909   88.6650   11.6058 C.ar    1  UNL1        0.1401
     21 F          58.8261   89.0488   12.7697 F       1  UNL1       -0.2042
     22 C          60.5042   87.4057   11.6587 C.ar    1  UNL1        0.0296
     23 C          61.3690   87.0219   10.4948 C.ar    1  UNL1        0.0023
     24 C          61.4206   87.8974    9.2779 C.ar    1  UNL1        0.0001
     25 C          62.1822   85.7626   10.5477 C.ar    1  UNL1        0.0032
     26 C          62.8155   85.2257    9.2985 C.ar    1  UNL1        0.0207
     27 C          63.6288   83.9663    9.3515 C.ar    1  UNL1        0.0989
     28 N          63.8087   83.2440   10.6537 N.ar    1  UNL1       -0.2423
     29 C          63.1754   83.7809   11.9029 C.ar    1  UNL1        0.0989
     30 C          62.3621   85.0402   11.8500 C.ar    1  UNL1        0.0207
@<TRIPOS>BOND
     1     7     8    1
     2     8     9    2
     3     8    10   am
     4    10    11    1
     5    11    12    1
     6    12    13    1
     7    13     1    1
     8     1     2   ar
     9     2     3   ar
    10     3     4   ar
    11     4    16    1
    12    16    17    2
    13    17    18    1
    14    18    19   ar
    15    19    20   ar
    16    20    21    1
    17    20    22   ar
    18    22    23   ar
    19    23    25    1
    20    25    26   ar
    21    26    27   ar
    22    27    28   ar
    23    28    29   ar
    24    29    30   ar
    25    23    24   ar
    26     4     5   ar
    27     5     6   ar
    28    13    14    1
    29    14    15    1
    30    15    10    1
    31     6     1   ar
    32    24    18   ar
    33    30    25   ar
@<TRIPOS>MOLECULE
*****
 30 33 0 0 0
SMALL
GASTEIGER

@<TRIPOS>ATOM
      1 C          54.2422   95.9750   -3.1495 C.ar    1  UNL1        0.0479
      2 C          55.5296   96.0378   -3.9166 C.ar    1  UNL1        0.0145
      3 C          56.8363   95.8429   -3.2062 C.ar    1  UNL1        0.0013
      4 C          56.8555   95.5851   -1.7287 C.ar    1  UNL1        0.0001
      5 C          55.5681   95.5223   -0.9616 C.ar    1  UNL1        0.0013
      6 C          54.2614   95.7173   -1.6719 C.ar    1  UNL1        0.0145
      7 C          48.9831   96.8560   -7.4871 C.3     1  UNL1        0.0948
      8 C          49.0155   96.7549   -5.9909 C.2     1  UNL1        0.2262
      9 O          47.7413   96.8487   -5.2051 O.2     1  UNL1       -0.2749
     10 N          50.3222   96.5599   -5.2806 N.am    1  UNL1       -0.2760
     11 C          51.5964   96.4661   -6.0664 C.3     1  UNL1        0.1148
     12 C          52.9031   96.2711   -5.3560 C.3     1  UNL1        0.1123
     13 N          52.9355   96.1700   -3.8598 N.pl3   1  UNL1       -0.3041
     14 C          51.6613   96.2638   -3.0740 C.3     1  UNL1        0.1123
     15 C          50.3547   96.4588   -3.7844 C.3     1  UNL1        0.1148
     16 C          58.1622   95.3902   -1.0184 C.2     1  UNL1        0.0000
     17 C          58.4113   94.1338   -0.2377 C.2     1  UNL1        0.0001
     18 C          59.7180   93.9388    0.4726 C.ar    1  UNL1        0.0022
     19 C          59.7881   93.0598    1.6861 C.ar    1  UNL1        0.0296
     20 C          61.0948   92.8648    2.3965 C.ar    1  UNL1        0.1401
     21 F          61.1649   91.9858    3.6099 F       1  UNL1       -0.2042
     22 C          62.3313   93.5489    1.8934 C.ar    1  UNL1        0.0296
     23 C          62.2612   94.4279    0.6800 C.ar    1  UNL1        0.0023
     24 C          60.9545   94.6229   -0.0304 C.ar    1  UNL1        0.0001
     25 C          63.4977   95.1119    0.1769 C.ar    1  UNL1        0.0032
     26 C          64.3916   95.8441    1.1334 C.ar    1  UNL1        0.0207
     27 C          65.6281   96.5282    0.6303 C.ar    1  UNL1        0.0989
     28 N          65.9707   96.4800   -0.8292 N.ar    1  UNL1       -0.2423
     29 C          65.0768   95.7479   -1.7857 C.ar    1  UNL1        0.0989
     30 C          63.8403   95.0638   -1.2827 C.ar    1  UNL1        0.0207
@<TRIPOS>BOND
     1     7     8    1
     2     8     9    2
     3     8    10   am
     4    10    11    1
     5    11    12    1
     6    12    13    1
     7    13     1    1
     8     1     2   ar
     9     2     3   ar
    10     3     4   ar
    11     4    16    1
    12    16    17    2
    13    17    18    1
    14    18    19   ar
    15    19    20   ar
    16    20    21    1
    17    20    22   ar
    18    22    23   ar
    19    23    25    1
    20    25    26   ar
    21    26    27   ar
    22    27    28   ar
    23    28    29   ar
    24    29    30   ar
    25    23    24   ar
    26     4     5   ar
    27     5     6   ar
    28    13    14    1
    29    14    15    1
    30    15    10    1
    31     6     1   ar
    32    24    18   ar
    33    30    25   ar
@<TRIPOS>MOLECULE
*****
 30 33 0 0 0
SMALL
GASTEIGER

@<TRIPOS>ATOM
      1 C          60.6956   93.3429    1.1627 C.ar    1  UNL1        0.0479
      2 C          62.0097   92.7854    1.6234 C.ar    1  UNL1        0.0145
      3 C          62.0936   92.0371    2.9207 C.ar    1  UNL1        0.0013
      4 C          60.8633   91.8463    3.7574 C.ar    1  UNL1        0.0001
      5 C          59.5492   92.4038    3.2967 C.ar    1  UNL1        0.0013
      6 C          59.4653   93.1521    1.9994 C.ar    1  UNL1        0.0145
      7 C          61.6056   96.6098   -4.8163 C.3     1  UNL1        0.0948
      8 C          60.3601   96.3360   -4.0265 C.2     1  UNL1        0.2262
      9 O          59.0308   96.8105   -4.5341 O.2     1  UNL1       -0.2749
     10 N          60.4440   95.5877   -2.7292 N.am    1  UNL1       -0.2760
     11 C          61.7733   95.1132   -2.2217 C.3     1  UNL1        0.1148
     12 C          61.8572   94.3649   -0.9243 C.3     1  UNL1        0.1123
     13 N          60.6117   94.0911   -0.1346 N.pl3   1  UNL1       -0.3041
     14 C          59.2824   94.5657   -0.6421 C.3     1  UNL1        0.1123
     15 C          59.1985   95.3139   -1.9394 C.3     1  UNL1        0.1148
     16 C          60.9472   91.0980    5.0547 C.2     1  UNL1        0.0000
     17 C          59.7475   90.3637    5.5759 C.2     1  UNL1        0.0001
     18 C          59.8314   89.6155    6.8732 C.ar    1  UNL1        0.0022
     19 C          59.0126   88.3754    7.0781 C.ar    1  UNL1        0.0296
     20 C          59.0965   87.6271    8.3754 C.ar    1  UNL1        0.1401
     21 F          58.2777   86.3871    8.5802 F       1  UNL1       -0.2042
     22 C          59.9991   88.1189    9.4679 C.ar    1  UNL1        0.0296
     23 C          60.8179   89.3589    9.2630 C.ar    1  UNL1        0.0023
     24 C          60.7340   90.1072    7.9657 C.ar    1  UNL1        0.0001
     25 C          61.7204   89.8506   10.3554 C.ar    1  UNL1        0.0032
     26 C          62.7997   90.8453   10.0458 C.ar    1  UNL1        0.0207
     27 C          63.7023   91.3370   11.1384 C.ar    1  UNL1        0.0989
     28 N          63.5257   90.8340   12.5404 N.ar    1  UNL1       -0.2423
     29 C          62.4464   89.8394   12.8500 C.ar    1  UNL1        0.0989
     30 C          61.5438   89.3476   11.7576 C.ar    1  UNL1        0.0207
@<TRIPOS>BOND
     1     7     8    1
     2     8     9    2
     3     8    10   am
     4    10    11    1
     5    11    12    1
     6    12    13    1
     7    13     1    1
     8     1     2   ar
     9     2     3   ar
    10     3     4   ar
    11     4    16    1
    12    16    17    2
    13    17    18    1
    14    18    19   ar
    15    19    20   ar
    16    20    21    1
    17    20    22   ar
    18    22    23   ar
    19    23    25    1
    20    25    26   ar
    21    26    27   ar
    22    27    28   ar
    23    28    29   ar
    24    29    30   ar
    25    23    24   ar
    26     4     5   ar
    27     5     6   ar
    28    13    14    1
    29    14    15    1
    30    15    10    1
    31     6     1   ar
    32    24    18   ar
    33    30    25   ar
@<TRIPOS>MOLECULE
*****
 30 33 0 0 0
SMALL
GASTEIGER

@<TRIPOS>ATOM
      1 C          54.3019   95.9899   -4.4963 C.ar    1  UNL1        0.0479
      2 C          55.3772   95.9591   -5.5416 C.ar    1  UNL1        0.0145
      3 C          56.8096   95.7700   -5.1387 C.ar    1  UNL1        0.0013
      4 C          57.1668   95.6117   -3.6905 C.ar    1  UNL1        0.0001
      5 C          56.0914   95.6425   -2.6452 C.ar    1  UNL1        0.0013
      6 C          54.6590   95.8316   -3.0481 C.ar    1  UNL1        0.0145
      7 C          48.2058   96.8265   -7.5603 C.3     1  UNL1        0.0948
      8 C          48.5721   96.7462   -6.1079 C.2     1  UNL1        0.2262
      9 O          47.5059   96.8550   -5.0585 O.2     1  UNL1       -0.2749
     10 N          50.0045   96.5571   -5.7050 N.am    1  UNL1       -0.2760
     11 C          51.0707   96.4484   -6.7545 C.3     1  UNL1        0.1148
     12 C          52.5031   96.2593   -6.3516 C.3     1  UNL1        0.1123
     13 N          52.8694   96.1790   -4.8992 N.pl3   1  UNL1       -0.3041
     14 C          51.8032   96.2877   -3.8498 C.3     1  UNL1        0.1123
     15 C          50.3708   96.4768   -4.2527 C.3     1  UNL1        0.1148
     16 C          58.5992   95.4226   -3.2876 C.2     1  UNL1        0.0000
     17 C          59.3477   94.2004   -3.7302 C.2     1  UNL1        0.0001
     18 C          60.7802   94.0113   -3.3273 C.ar    1  UNL1        0.0022
     19 C          61.8657   94.0850   -4.3599 C.ar    1  UNL1        0.0296
     20 C          63.2981   93.8959   -3.9570 C.ar    1  UNL1        0.1401
     21 F          64.3837   93.9695   -4.9895 F       1  UNL1       -0.2042
     22 C          63.6451   93.6331   -2.5215 C.ar    1  UNL1        0.0296
     23 C          62.5595   93.5595   -1.4889 C.ar    1  UNL1        0.0023
     24 C          61.1271   93.7486   -1.8918 C.ar    1  UNL1        0.0001
     25 C          62.9065   93.2967   -0.0535 C.ar    1  UNL1        0.0032
     26 C          61.8554   92.7971    0.8929 C.ar    1  UNL1        0.0207
     27 C          62.2024   92.5344    2.3284 C.ar    1  UNL1        0.0989
     28 N          63.6004   92.7713    2.8175 N.ar    1  UNL1       -0.2423
     29 C          64.6515   93.2709    1.8712 C.ar    1  UNL1        0.0989
     30 C          64.3046   93.5336    0.4357 C.ar    1  UNL1        0.0207
@<TRIPOS>BOND
     1     7     8    1
     2     8     9    2
     3     8    10   am
     4    10    11    1
     5    11    12    1
     6    12    13    1
     7    13     1    1
     8     1     2   ar
     9     2     3   ar
    10     3     4   ar
    11     4    16    1
    12    16    17    2
    13    17    18    1
    14    18    19   ar
    15    19    20   ar
    16    20    21    1
    17    20    22   ar
    18    22    23   ar
    19    23    25    1
    20    25    26   ar
    21    26    27   ar
    22    27    28   ar
    23    28    29   ar
    24    29    30   ar
    25    23    24   ar
    26     4     5   ar
    27     5     6   ar
    28    13    14    1
    29    14    15    1
    30    15    10    1
    31     6     1   ar
    32    24    18   ar
    33    30    25   ar
@<TRIPOS>MOLECULE
*****
 30 33 0 0 0
SMALL
GASTEIGER

@<TRIPOS>ATOM
      1 C          63.4669   85.4360   13.6990 C.ar    1  UNL1        0.0479
      2 C          64.2479   85.9025   14.8916 C.ar    1  UNL1        0.0145
      3 C          64.6481   87.3434   15.0092 C.ar    1  UNL1        0.0013
      4 C          64.2673   88.3177   13.9343 C.ar    1  UNL1        0.0001
      5 C          63.4863   87.8512   12.7417 C.ar    1  UNL1        0.0013
      6 C          63.0861   86.4104   12.6240 C.ar    1  UNL1        0.0145
      7 C          62.4858   78.8060   12.1727 C.3     1  UNL1        0.0948
      8 C          61.8660   79.6727   13.2284 C.2     1  UNL1        0.2262
      9 O          60.8461   79.0987   14.1665 O.2     1  UNL1       -0.2749
     10 N          62.2663   81.1136   13.3461 N.am    1  UNL1       -0.2760
     11 C          63.2862   81.6876   12.4080 C.3     1  UNL1        0.1148
     12 C          63.6865   83.1285   12.5256 C.3     1  UNL1        0.1123
     13 N          63.0667   83.9952   13.5813 N.pl3   1  UNL1       -0.3041
     14 C          62.0467   83.4211   14.5194 C.3     1  UNL1        0.1123
     15 C          61.6465   81.9803   14.4018 C.3     1  UNL1        0.1148
     16 C          64.6676   89.7585   14.0519 C.2     1  UNL1        0.0000
     17 C          65.4390   90.4154   12.9458 C.2     1  UNL1        0.0001
     18 C          65.8392   91.8562   13.0635 C.ar    1  UNL1        0.0022
     19 C          66.2755   92.4076   14.3885 C.ar    1  UNL1        0.0296
     20 C          66.6758   93.8484   14.5061 C.ar    1  UNL1        0.1401
     21 F          67.1121   94.3999   15.8311 F       1  UNL1       -0.2042
     22 C          66.6396   94.7379   13.2988 C.ar    1  UNL1        0.0296
     23 C          66.2033   94.1864   11.9738 C.ar    1  UNL1        0.0023
     24 C          65.8030   92.7456   11.8562 C.ar    1  UNL1        0.0001
     25 C          66.1671   95.0758   10.7665 C.ar    1  UNL1        0.0032
     26 C          64.9839   95.9658   10.5257 C.ar    1  UNL1        0.0207
     27 C          64.9478   96.8552    9.3183 C.ar    1  UNL1        0.0989
     28 N          66.0949   96.8547    8.3519 N.ar    1  UNL1       -0.2423
     29 C          67.2781   95.9648    8.5927 C.ar    1  UNL1        0.0989
     30 C          67.3143   95.0754    9.8000 C.ar    1  UNL1        0.0207
@<TRIPOS>BOND
     1     7     8    1
     2     8     9    2
     3     8    10   am
     4    10    11    1
     5    11    12    1
     6    12    13    1
     7    13     1    1
     8     1     2   ar
     9     2     3   ar
    10     3     4   ar
    11     4    16    1
    12    16    17    2
    13    17    18    1
    14    18    19   ar
    15    19    20   ar
    16    20    21    1
    17    20    22   ar
    18    22    23   ar
    19    23    25    1
    20    25    26   ar
    21    26    27   ar
    22    27    28   ar
    23    28    29   ar
    24    29    30   ar
    25    23    24   ar
    26     4     5   ar
    27     5     6   ar
    28    13    14    1
    29    14    15    1
    30    15    10    1
    31     6     1   ar
    32    24    18   ar
    33    30    25   ar
@<TRIPOS>MOLECULE
*****
 30 33 0 0 0
SMALL
GASTEIGER

@<TRIPOS>ATOM
      1 C          54.4787   95.9228   -4.6733 C.ar    1  UNL1        0.0479
      2 C          55.4549   95.7264   -5.7950 C.ar    1  UNL1        0.0145
      3 C          56.9109   95.5254   -5.4956 C.ar    1  UNL1        0.0013
      4 C          57.3906   95.5208   -4.0744 C.ar    1  UNL1        0.0001
      5 C          56.4144   95.7173   -2.9527 C.ar    1  UNL1        0.0013
      6 C          54.9584   95.9183   -3.2521 C.ar    1  UNL1        0.0145
      7 C          48.1845   96.7990   -7.2937 C.3     1  UNL1        0.0948
      8 C          48.6547   96.7269   -5.8711 C.2     1  UNL1        0.2262
      9 O          47.6688   96.8557   -4.7480 O.2     1  UNL1       -0.2749
     10 N          50.1107   96.5259   -5.5717 N.am    1  UNL1       -0.2760
     11 C          51.0965   96.3970   -6.6948 C.3     1  UNL1        0.1148
     12 C          52.5525   96.1960   -6.3953 C.3     1  UNL1        0.1123
     13 N          53.0227   96.1238   -4.9728 N.pl3   1  UNL1       -0.3041
     14 C          52.0368   96.2527   -3.8497 C.3     1  UNL1        0.1123
     15 C          50.5808   96.4537   -4.1491 C.3     1  UNL1        0.1148
     16 C          58.8466   95.3198   -3.7749 C.2     1  UNL1        0.0000
     17 C          59.3163   94.0320   -3.1660 C.2     1  UNL1        0.0001
     18 C          60.7723   93.8310   -2.8665 C.ar    1  UNL1        0.0022
     19 C          61.2428   93.7621   -1.4439 C.ar    1  UNL1        0.0296
     20 C          62.6988   93.5611   -1.1444 C.ar    1  UNL1        0.1401
     21 F          63.1694   93.4922    0.2782 F       1  UNL1       -0.2042
     22 C          63.6843   93.4290   -2.2676 C.ar    1  UNL1        0.0296
     23 C          63.2137   93.4979   -3.6902 C.ar    1  UNL1        0.0023
     24 C          61.7577   93.6989   -3.9896 C.ar    1  UNL1        0.0001
     25 C          64.1991   93.3658   -4.8133 C.ar    1  UNL1        0.0032
     26 C          64.2892   92.0828   -5.5851 C.ar    1  UNL1        0.0207
     27 C          65.2747   91.9507   -6.7082 C.ar    1  UNL1        0.0989
     28 N          66.1700   93.1017   -7.0596 N.ar    1  UNL1       -0.2423
     29 C          66.0800   94.3848   -6.2878 C.ar    1  UNL1        0.0989
     30 C          65.0946   94.5168   -5.1647 C.ar    1  UNL1        0.0207
@<TRIPOS>BOND
     1     7     8    1
     2     8     9    2
     3     8    10   am
     4    10    11    1
     5    11    12    1
     6    12    13    1
     7    13     1    1
     8     1     2   ar
     9     2     3   ar
    10     3     4   ar
    11     4    16    1
    12    16    17    2
    13    17    18    1
    14    18    19   ar
    15    19    20   ar
    16    20    21    1
    17    20    22   ar
    18    22    23   ar
    19    23    25    1
    20    25    26   ar
    21    26    27   ar
    22    27    28   ar
    23    28    29   ar
    24    29    30   ar
    25    23    24   ar
    26     4     5   ar
    27     5     6   ar
    28    13    14    1
    29    14    15    1
    30    15    10    1
    31     6     1   ar
    32    24    18   ar
    33    30    25   ar
