@<TRIPOS>MOLECULE
*****
 45 49 0 0 0
SMALL
GASTEIGER

@<TRIPOS>ATOM
      1 C          60.8162   86.8993    9.3691 C.3     1  UNL1        0.0964
      2 C          60.0049   86.0628    8.4246 C.3     1  UNL1        0.0780
      3 N          59.0556   86.7199    7.4670 N.3     1  UNL1       -0.2970
      4 C          58.9177   88.2135    7.4539 C.3     1  UNL1        0.0689
      5 C          59.7290   89.0499    8.3984 C.3     1  UNL1        0.0220
      6 C          60.6783   88.3928    9.3560 C.3     1  UNL1        0.0337
      7 H          58.1295   86.3404    7.6634 H       1  UNL1        0.1233
      8 C          61.4896   89.2293   10.3005 C.ar    1  UNL1       -0.0217
      9 C          61.0031   89.4665   11.6995 C.ar    1  UNL1       -0.0012
     10 C          61.8144   90.3029   12.6440 C.ar    1  UNL1        0.0366
     11 C          63.1122   90.9022   12.1896 C.ar    1  UNL1        0.1387
     12 C          63.5987   90.6650   10.7906 C.ar    1  UNL1        0.0366
     13 C          62.7874   89.8285    9.8461 C.ar    1  UNL1       -0.0012
     14 O          63.9236   91.7386   13.1341 O.3     1  UNL1       -0.4714
     15 C          65.3971   91.9071   12.9102 C.3     1  UNL1        0.2525
     16 C          65.9919   93.2821   12.8347 C.3     1  UNL1        0.2525
     17 O          67.1674   93.5427   11.9400 O.3     1  UNL1       -0.4697
     18 C          66.9977   94.3709   10.7009 C.ar    1  UNL1        0.1596
     19 C          67.4054   93.8179    9.3675 C.ar    1  UNL1        0.0921
     20 CL         67.9828   92.4367    9.2733 Cl      1  UNL1       -0.0791
     21 C          67.2357   94.6460    8.1284 C.ar    1  UNL1        0.0103
     22 C          66.6582   96.0272    8.2227 C.ar    1  UNL1       -0.0200
     23 C          66.4885   96.8553    6.9836 C.3     1  UNL1        0.0311
     24 C          66.2505   96.5803    9.5561 C.ar    1  UNL1        0.0103
     25 C          66.4202   95.7521   10.7952 C.ar    1  UNL1        0.0921
     26 CL         66.0125   96.3051   12.1286 Cl      1  UNL1       -0.0791
     27 N          62.7842   85.2643    9.8208 N.am    1  UNL1       -0.2770
     28 C          61.7655   86.2421   10.3268 C.2     1  UNL1        0.2270
     29 O          61.6960   86.5628   11.7905 O.2     1  UNL1       -0.2748
     30 C          62.8536   84.9435    8.3571 C.3     1  UNL1        0.0758
     31 C          63.5967   84.9737    7.0545 C.3     1  UNL1        0.0215
     32 C          62.2307   84.3579    7.1246 C.3     1  UNL1        0.0215
     33 C          63.7335   84.6071   10.7784 C.3     1  UNL1        0.1209
     34 C          62.3647   83.2581   14.2508 C.ar    1  UNL1       -0.0210
     35 C          62.1673   81.8055   13.9326 C.ar    1  UNL1       -0.0034
     36 C          62.4920   81.2869   12.5631 C.ar    1  UNL1        0.0108
     37 C          63.0140   82.2207   11.5117 C.ar    1  UNL1        0.0553
     38 CL         63.3387   81.7021   10.1422 Cl      1  UNL1       -0.0825
     39 C          63.2114   83.6732   11.8298 C.ar    1  UNL1        0.0079
     40 C          62.8868   84.1920   13.1994 C.ar    1  UNL1       -0.0060
     41 C          62.0401   83.7768   15.6202 C.3     1  UNL1        0.0434
     42 C          62.7497   84.9867   16.1517 C.3     1  UNL1        0.0733
     43 C          62.6662   87.2406   17.4413 C.3     1  UNL1        0.0859
     44 N          62.0361   85.9297   17.0745 N.3     1  UNL1       -0.2960
     45 H          61.1394   86.1457   16.6389 H       1  UNL1        0.1233
@<TRIPOS>BOND
     1    43    44    1
     2    44    42    1
     3    42    41    1
     4    41    34    1
     5    34    35   ar
     6    35    36   ar
     7    36    37   ar
     8    37    38    1
     9    37    39   ar
    10    39    33    1
    11    33    27    1
    12    27    28   am
    13    28    29    2
    14     1    28    1
    15     1     2    1
    16     2     3    1
    17     3     4    1
    18     4     5    1
    19     5     6    1
    20     6     8    1
    21     8     9   ar
    22     9    10   ar
    23    10    11   ar
    24    11    14    1
    25    14    15    1
    26    15    16    1
    27    16    17    1
    28    17    18    1
    29    18    19   ar
    30    19    20    1
    31    19    21   ar
    32    21    22   ar
    33    22    23    1
    34    22    24   ar
    35    24    25   ar
    36    25    26    1
    37    11    12   ar
    38    12    13   ar
    39    27    30    1
    40    30    31    1
    41    31    32    1
    42    39    40   ar
    43    40    34   ar
    44     6     1    1
    45    13     8   ar
    46    32    30    1
    47    25    18   ar
    48    44    45    1
    49     3     7    1
@<TRIPOS>MOLECULE
*****
 45 49 0 0 0
SMALL
GASTEIGER

@<TRIPOS>ATOM
      1 C          61.0774   88.7132    9.4376 C.3     1  UNL1        0.0964
      2 C          60.2847   89.8971    8.9685 C.3     1  UNL1        0.0780
      3 N          59.3526   89.7608    7.8013 N.3     1  UNL1       -0.2970
      4 C          59.2130   88.4406    7.1032 C.3     1  UNL1        0.0689
      5 C          60.0057   87.2567    7.5722 C.3     1  UNL1        0.0220
      6 C          60.9378   87.3930    8.7394 C.3     1  UNL1        0.0337
      7 H          59.6593   90.4342    7.0993 H       1  UNL1        0.1233
      8 C          61.7305   86.2090    9.2085 C.ar    1  UNL1       -0.0217
      9 C          62.7012   85.5410    8.2804 C.ar    1  UNL1       -0.0012
     10 C          63.4939   84.3571    8.7495 C.ar    1  UNL1        0.0366
     11 C          63.3158   83.8412   10.1466 C.ar    1  UNL1        0.1387
     12 C          62.3450   84.5092   11.0747 C.ar    1  UNL1        0.0366
     13 C          61.5524   85.6931   10.6057 C.ar    1  UNL1       -0.0012
     14 O          64.1084   82.6572   10.6157 O.3     1  UNL1       -0.4714
     15 C          63.4879   81.6620   11.5507 C.3     1  UNL1        0.2525
     16 C          63.7589   81.7463   13.0236 C.3     1  UNL1        0.2525
     17 O          64.6177   82.8501   13.5662 O.3     1  UNL1       -0.4697
     18 C          64.0525   83.8200   14.5611 C.ar    1  UNL1        0.1596
     19 C          62.6723   83.6122   15.1103 C.ar    1  UNL1        0.0921
     20 CL         61.8572   82.4346   14.6646 Cl      1  UNL1       -0.0791
     21 C          62.1071   84.5821   16.1052 C.ar    1  UNL1        0.0103
     22 C          62.9222   85.7598   16.5509 C.ar    1  UNL1       -0.0200
     23 C          62.3570   86.7297   17.5458 C.3     1  UNL1        0.0311
     24 C          64.3025   85.9676   16.0017 C.ar    1  UNL1        0.0103
     25 C          64.8677   84.9977   15.0068 C.ar    1  UNL1        0.0921
     26 CL         66.2480   85.2054   14.4575 Cl      1  UNL1       -0.0791
     27 N          61.4998   89.3740   11.9145 N.am    1  UNL1       -0.2770
     28 C          62.0096   88.8495   10.6049 C.2     1  UNL1        0.2270
     29 O          63.4514   88.4614   10.4625 O.2     1  UNL1       -0.2748
     30 C          60.0580   89.7622   12.0569 C.3     1  UNL1        0.0758
     31 C          58.9521   90.7528   11.8428 C.3     1  UNL1        0.0215
     32 C          58.6664   89.4439   12.5175 C.3     1  UNL1        0.0215
     33 C          62.4320   89.5104   13.0818 C.3     1  UNL1        0.1209
     34 C          64.9588   92.2506   11.7191 C.ar    1  UNL1       -0.0210
     35 C          65.7893   92.5036   12.9423 C.ar    1  UNL1       -0.0034
     36 C          65.5008   91.7589   14.2119 C.ar    1  UNL1        0.0108
     37 C          64.3817   90.7611   14.2584 C.ar    1  UNL1        0.0553
     38 CL         64.0931   90.0164   15.5281 Cl      1  UNL1       -0.0825
     39 C          63.5511   90.5081   13.0353 C.ar    1  UNL1        0.0079
     40 C          63.8397   91.2529   11.7655 C.ar    1  UNL1       -0.0060
     41 C          65.2473   92.9954   10.4494 C.3     1  UNL1        0.0434
     42 C          66.0831   94.2405   10.4836 C.3     1  UNL1        0.0733
     43 C          68.0582   92.9807    9.3602 C.3     1  UNL1        0.0859
     44 N          67.5254   94.1871   10.0749 N.3     1  UNL1       -0.2960
     45 H          67.6880   94.9872    9.4635 H       1  UNL1        0.1233
@<TRIPOS>BOND
     1    43    44    1
     2    44    42    1
     3    42    41    1
     4    41    34    1
     5    34    35   ar
     6    35    36   ar
     7    36    37   ar
     8    37    38    1
     9    37    39   ar
    10    39    33    1
    11    33    27    1
    12    27    28   am
    13    28    29    2
    14     1    28    1
    15     1     2    1
    16     2     3    1
    17     3     4    1
    18     4     5    1
    19     5     6    1
    20     6     8    1
    21     8     9   ar
    22     9    10   ar
    23    10    11   ar
    24    11    14    1
    25    14    15    1
    26    15    16    1
    27    16    17    1
    28    17    18    1
    29    18    19   ar
    30    19    20    1
    31    19    21   ar
    32    21    22   ar
    33    22    23    1
    34    22    24   ar
    35    24    25   ar
    36    25    26    1
    37    11    12   ar
    38    12    13   ar
    39    27    30    1
    40    30    31    1
    41    31    32    1
    42    39    40   ar
    43    40    34   ar
    44     6     1    1
    45    13     8   ar
    46    32    30    1
    47    25    18   ar
    48    44    45    1
    49     3     7    1
@<TRIPOS>MOLECULE
*****
 45 49 0 0 0
SMALL
GASTEIGER

@<TRIPOS>ATOM
      1 C          61.4091   88.8130   10.7778 C.3     1  UNL1        0.0964
      2 C          60.6827   90.1209   10.6696 C.3     1  UNL1        0.0780
      3 N          59.8257   90.4060    9.4721 N.3     1  UNL1       -0.2970
      4 C          59.6951   89.3832    8.3827 C.3     1  UNL1        0.0689
      5 C          60.4216   88.0753    8.4909 C.3     1  UNL1        0.0220
      6 C          61.2786   87.7902    9.6885 C.3     1  UNL1        0.0337
      7 H          60.1968   91.2517    9.0390 H       1  UNL1        0.1233
      8 C          62.0050   86.4823    9.7967 C.ar    1  UNL1       -0.0217
      9 C          61.9184   85.6786   11.0602 C.ar    1  UNL1       -0.0012
     10 C          62.6448   84.3707   11.1684 C.ar    1  UNL1        0.0366
     11 C          63.4578   83.8665   10.0131 C.ar    1  UNL1        0.1387
     12 C          63.5444   84.6702    8.7496 C.ar    1  UNL1        0.0366
     13 C          62.8179   85.9781    8.6414 C.ar    1  UNL1       -0.0012
     14 O          64.1842   82.5586   10.1213 O.3     1  UNL1       -0.4714
     15 C          63.5457   81.4026   10.8325 C.3     1  UNL1        0.2525
     16 C          63.4301   81.4133   12.3280 C.3     1  UNL1        0.2525
     17 O          64.3963   82.2149   13.1492 O.3     1  UNL1       -0.4697
     18 C          63.8856   83.1999   14.1585 C.ar    1  UNL1        0.1596
     19 C          62.5330   83.0065   14.7775 C.ar    1  UNL1        0.0921
     20 CL         61.6912   81.8280   14.3872 Cl      1  UNL1       -0.0791
     21 C          62.0223   83.9915   15.7869 C.ar    1  UNL1        0.0103
     22 C          62.8642   85.1700   16.1773 C.ar    1  UNL1       -0.0200
     23 C          62.3535   86.1551   17.1867 C.3     1  UNL1        0.0311
     24 C          64.2168   85.3635   15.5583 C.ar    1  UNL1        0.0103
     25 C          64.7275   84.3785   14.5489 C.ar    1  UNL1        0.0921
     26 CL         66.0800   84.5719   13.9299 Cl      1  UNL1       -0.0791
     27 N          63.4122   89.4357   12.3108 N.am    1  UNL1       -0.2770
     28 C          62.2662   88.5280   11.9755 C.2     1  UNL1        0.2270
     29 O          61.9771   87.3351   12.8378 O.2     1  UNL1       -0.2748
     30 C          63.7013   90.6286   11.4485 C.3     1  UNL1        0.0758
     31 C          64.3487   91.9683   11.2593 C.3     1  UNL1        0.0215
     32 C          63.5546   91.3548   10.1443 C.3     1  UNL1        0.0215
     33 C          64.2692   89.1507   13.5085 C.3     1  UNL1        0.1209
     34 C          66.0437   92.2514   15.2368 C.ar    1  UNL1       -0.0210
     35 C          65.1833   92.4288   16.4527 C.ar    1  UNL1       -0.0034
     36 C          64.0182   91.5136   16.6871 C.ar    1  UNL1        0.0108
     37 C          63.7136   90.4208   15.7057 C.ar    1  UNL1        0.0553
     38 CL         62.5485   89.5056   15.9401 Cl      1  UNL1       -0.0825
     39 C          64.5739   90.2434   14.4899 C.ar    1  UNL1        0.0079
     40 C          65.7390   91.1586   14.2554 C.ar    1  UNL1       -0.0060
     41 C          67.2087   93.1666   15.0024 C.3     1  UNL1        0.0434
     42 C          68.6061   92.6803   15.2492 C.3     1  UNL1        0.0733
     43 C          68.9244   91.6342   12.8924 C.3     1  UNL1        0.0859
     44 N          69.4943   92.3319   14.0917 N.3     1  UNL1       -0.2960
     45 H          69.9001   93.2064   13.7583 H       1  UNL1        0.1233
@<TRIPOS>BOND
     1    43    44    1
     2    44    42    1
     3    42    41    1
     4    41    34    1
     5    34    35   ar
     6    35    36   ar
     7    36    37   ar
     8    37    38    1
     9    37    39   ar
    10    39    33    1
    11    33    27    1
    12    27    28   am
    13    28    29    2
    14     1    28    1
    15     1     2    1
    16     2     3    1
    17     3     4    1
    18     4     5    1
    19     5     6    1
    20     6     8    1
    21     8     9   ar
    22     9    10   ar
    23    10    11   ar
    24    11    14    1
    25    14    15    1
    26    15    16    1
    27    16    17    1
    28    17    18    1
    29    18    19   ar
    30    19    20    1
    31    19    21   ar
    32    21    22   ar
    33    22    23    1
    34    22    24   ar
    35    24    25   ar
    36    25    26    1
    37    11    12   ar
    38    12    13   ar
    39    27    30    1
    40    30    31    1
    41    31    32    1
    42    39    40   ar
    43    40    34   ar
    44     6     1    1
    45    13     8   ar
    46    32    30    1
    47    25    18   ar
    48    44    45    1
    49     3     7    1
@<TRIPOS>MOLECULE
*****
 45 49 0 0 0
SMALL
GASTEIGER

@<TRIPOS>ATOM
      1 C          62.0514   93.0925   -0.2342 C.3     1  UNL1        0.0964
      2 C          62.9247   93.5091   -1.3805 C.3     1  UNL1        0.0780
      3 N          64.2970   94.0550   -1.1180 N.3     1  UNL1       -0.2970
      4 C          64.7959   94.1844    0.2906 C.3     1  UNL1        0.0689
      5 C          63.9226   93.7679    1.4368 C.3     1  UNL1        0.0220
      6 C          62.5504   93.2219    1.1744 C.3     1  UNL1        0.0337
      7 H          64.3256   94.9888   -1.5275 H       1  UNL1        0.1233
      8 C          61.6771   92.8053    2.3206 C.ar    1  UNL1       -0.0217
      9 C          62.1416   91.7400    3.2688 C.ar    1  UNL1       -0.0012
     10 C          61.2683   91.3234    4.4151 C.ar    1  UNL1        0.0366
     11 C          59.9305   91.9722    4.6131 C.ar    1  UNL1        0.1387
     12 C          59.4659   93.0376    3.6648 C.ar    1  UNL1        0.0366
     13 C          60.3392   93.4541    2.5186 C.ar    1  UNL1       -0.0012
     14 O          59.0572   91.5556    5.7593 O.3     1  UNL1       -0.4714
     15 C          58.6962   90.1111    5.9408 C.3     1  UNL1        0.2525
     16 C          59.5807   89.2136    6.7545 C.3     1  UNL1        0.2525
     17 O          59.0389   88.5356    7.9781 O.3     1  UNL1       -0.4697
     18 C          59.9746   87.8682    8.9420 C.ar    1  UNL1        0.1596
     19 C          60.4412   86.4660    8.6852 C.ar    1  UNL1        0.0921
     20 CL         59.9723   85.7312    7.4645 Cl      1  UNL1       -0.0791
     21 C          61.3769   85.7985    9.6491 C.ar    1  UNL1        0.0103
     22 C          61.8459   86.5333   10.8698 C.ar    1  UNL1       -0.0200
     23 C          62.7815   85.8658   11.8337 C.3     1  UNL1        0.0311
     24 C          61.3792   87.9355   11.1266 C.ar    1  UNL1        0.0103
     25 C          60.4436   88.6030   10.1627 C.ar    1  UNL1        0.0921
     26 CL         59.9769   90.0052   10.4195 Cl      1  UNL1       -0.0791
     27 N          59.6036   93.4458   -1.0300 N.am    1  UNL1       -0.2770
     28 C          60.6792   92.5465   -0.4967 C.2     1  UNL1        0.2270
     29 O          60.3825   91.1013   -0.2259 O.2     1  UNL1       -0.2748
     30 C          59.9002   94.8910   -1.3008 C.3     1  UNL1        0.0758
     31 C          60.3121   96.2468   -0.8091 C.3     1  UNL1        0.0215
     32 C          60.0019   96.0383   -2.2617 C.3     1  UNL1        0.0215
     33 C          58.2313   92.8998   -1.2925 C.3     1  UNL1        0.1209
     34 C          56.9449   92.8900   -5.0468 C.ar    1  UNL1       -0.0210
     35 C          56.0210   94.0717   -5.0330 C.ar    1  UNL1       -0.0034
     36 C          55.8340   94.8627   -3.7723 C.ar    1  UNL1        0.0108
     37 C          56.5707   94.4721   -2.5255 C.ar    1  UNL1        0.0553
     38 CL         56.3836   95.2630   -1.2648 Cl      1  UNL1       -0.0825
     39 C          57.4945   93.2904   -2.5393 C.ar    1  UNL1        0.0079
     40 C          57.6817   92.4994   -3.8000 C.ar    1  UNL1       -0.0060
     41 C          57.1320   92.0991   -6.3075 C.3     1  UNL1        0.0434
     42 C          55.9652   91.3890   -6.9276 C.3     1  UNL1        0.0733
     43 C          53.8851   89.8532   -6.6738 C.3     1  UNL1        0.0859
     44 N          54.9543   90.7047   -6.0559 N.3     1  UNL1       -0.2960
     45 H          55.4751   90.1050   -5.4159 H       1  UNL1        0.1233
@<TRIPOS>BOND
     1    43    44    1
     2    44    42    1
     3    42    41    1
     4    41    34    1
     5    34    35   ar
     6    35    36   ar
     7    36    37   ar
     8    37    38    1
     9    37    39   ar
    10    39    33    1
    11    33    27    1
    12    27    28   am
    13    28    29    2
    14     1    28    1
    15     1     2    1
    16     2     3    1
    17     3     4    1
    18     4     5    1
    19     5     6    1
    20     6     8    1
    21     8     9   ar
    22     9    10   ar
    23    10    11   ar
    24    11    14    1
    25    14    15    1
    26    15    16    1
    27    16    17    1
    28    17    18    1
    29    18    19   ar
    30    19    20    1
    31    19    21   ar
    32    21    22   ar
    33    22    23    1
    34    22    24   ar
    35    24    25   ar
    36    25    26    1
    37    11    12   ar
    38    12    13   ar
    39    27    30    1
    40    30    31    1
    41    31    32    1
    42    39    40   ar
    43    40    34   ar
    44     6     1    1
    45    13     8   ar
    46    32    30    1
    47    25    18   ar
    48    44    45    1
    49     3     7    1
@<TRIPOS>MOLECULE
*****
 45 49 0 0 0
SMALL
GASTEIGER

@<TRIPOS>ATOM
      1 C          61.1119   88.2404    9.4740 C.3     1  UNL1        0.0964
      2 C          60.3011   89.1899    8.6427 C.3     1  UNL1        0.0780
      3 N          59.3377   88.6592    7.6229 N.3     1  UNL1       -0.2970
      4 C          59.1850   87.1789    7.4344 C.3     1  UNL1        0.0689
      5 C          59.9958   86.2294    8.2657 C.3     1  UNL1        0.0220
      6 C          60.9592   86.7601    9.2855 C.3     1  UNL1        0.0337
      7 H          59.6218   89.0430    6.7216 H       1  UNL1        0.1233
      8 C          61.7700   85.8106   10.1168 C.ar    1  UNL1       -0.0217
      9 C          62.8065   84.9423    9.4675 C.ar    1  UNL1       -0.0012
     10 C          63.6172   83.9928   10.2988 C.ar    1  UNL1        0.0366
     11 C          63.3915   83.9116   11.7795 C.ar    1  UNL1        0.1387
     12 C          62.3551   84.7799   12.4288 C.ar    1  UNL1        0.0366
     13 C          61.5443   85.7294   11.5975 C.ar    1  UNL1       -0.0012
     14 O          64.2023   82.9621   12.6108 O.3     1  UNL1       -0.4714
     15 C          63.9527   82.8557   14.0860 C.3     1  UNL1        0.2525
     16 C          64.4988   83.8982   15.0161 C.3     1  UNL1        0.2525
     17 O          63.5766   84.6332   15.9432 O.3     1  UNL1       -0.4697
     18 C          63.6021   86.1322   15.9936 C.ar    1  UNL1        0.1596
     19 C          62.9628   86.8549   17.1420 C.ar    1  UNL1        0.0921
     20 CL         62.2981   86.0788   18.2401 Cl      1  UNL1       -0.0791
     21 C          62.9883   88.3539   17.1925 C.ar    1  UNL1        0.0103
     22 C          63.6530   89.1300   16.0944 C.ar    1  UNL1       -0.0200
     23 C          63.6785   90.6290   16.1448 C.3     1  UNL1        0.0311
     24 C          64.2923   88.4073   14.9459 C.ar    1  UNL1        0.0103
     25 C          64.2668   86.9083   14.8955 C.ar    1  UNL1        0.0921
     26 CL         64.9060   86.1855   13.7471 Cl      1  UNL1       -0.0791
     27 N          61.5747   89.6043   11.6363 N.am    1  UNL1       -0.2770
     28 C          62.0753   88.7711   10.4939 C.2     1  UNL1        0.2270
     29 O          63.5394   88.4687   10.3713 O.2     1  UNL1       -0.2748
     30 C          60.1106   89.9068   11.7589 C.3     1  UNL1        0.0758
     31 C          58.7240   89.4817   12.1414 C.3     1  UNL1        0.0215
     32 C          58.9616   90.8558   11.5887 C.3     1  UNL1        0.0215
     33 C          62.5382   90.1351   12.6562 C.3     1  UNL1        0.1209
     34 C          66.0404   92.0014   12.6953 C.ar    1  UNL1       -0.0210
     35 C          66.0162   92.6776   11.3566 C.ar    1  UNL1       -0.0034
     36 C          64.8327   92.5064   10.4511 C.ar    1  UNL1        0.0108
     37 C          63.6733   91.6589   10.8843 C.ar    1  UNL1        0.0553
     38 CL         62.4898   91.4876    9.9789 Cl      1  UNL1       -0.0825
     39 C          63.6975   90.9826   12.2230 C.ar    1  UNL1        0.0079
     40 C          64.8811   91.1539   13.1285 C.ar    1  UNL1       -0.0060
     41 C          67.2240   92.1726   13.6007 C.3     1  UNL1        0.0434
     42 C          67.0955   91.8805   15.0664 C.3     1  UNL1        0.0733
     43 C          68.8503   93.6459   15.8108 C.3     1  UNL1        0.0859
     44 N          67.5922   92.8733   16.0754 N.3     1  UNL1       -0.2960
     45 H          66.8478   93.5583   16.2055 H       1  UNL1        0.1233
@<TRIPOS>BOND
     1    43    44    1
     2    44    42    1
     3    42    41    1
     4    41    34    1
     5    34    35   ar
     6    35    36   ar
     7    36    37   ar
     8    37    38    1
     9    37    39   ar
    10    39    33    1
    11    33    27    1
    12    27    28   am
    13    28    29    2
    14     1    28    1
    15     1     2    1
    16     2     3    1
    17     3     4    1
    18     4     5    1
    19     5     6    1
    20     6     8    1
    21     8     9   ar
    22     9    10   ar
    23    10    11   ar
    24    11    14    1
    25    14    15    1
    26    15    16    1
    27    16    17    1
    28    17    18    1
    29    18    19   ar
    30    19    20    1
    31    19    21   ar
    32    21    22   ar
    33    22    23    1
    34    22    24   ar
    35    24    25   ar
    36    25    26    1
    37    11    12   ar
    38    12    13   ar
    39    27    30    1
    40    30    31    1
    41    31    32    1
    42    39    40   ar
    43    40    34   ar
    44     6     1    1
    45    13     8   ar
    46    32    30    1
    47    25    18   ar
    48    44    45    1
    49     3     7    1
@<TRIPOS>MOLECULE
*****
 45 49 0 0 0
SMALL
GASTEIGER

@<TRIPOS>ATOM
      1 C          61.0075   88.3417    9.2671 C.3     1  UNL1        0.0964
      2 C          60.0908   89.4211    8.7724 C.3     1  UNL1        0.0780
      3 N          59.0315   89.0998    7.7602 N.3     1  UNL1       -0.2970
      4 C          58.8890   87.6993    7.2426 C.3     1  UNL1        0.0689
      5 C          59.8057   86.6199    7.7372 C.3     1  UNL1        0.0220
      6 C          60.8649   86.9411    8.7495 C.3     1  UNL1        0.0337
      7 H          59.2066   89.6963    6.9514 H       1  UNL1        0.1233
      8 C          61.7816   85.8618    9.2441 C.ar    1  UNL1       -0.0217
      9 C          62.7850   85.2458    8.3148 C.ar    1  UNL1       -0.0012
     10 C          63.7017   84.1665    8.8095 C.ar    1  UNL1        0.0366
     11 C          63.6150   83.7031   10.2334 C.ar    1  UNL1        0.1387
     12 C          62.6116   84.3191   11.1627 C.ar    1  UNL1        0.0366
     13 C          61.6949   85.3984   10.6681 C.ar    1  UNL1       -0.0012
     14 O          64.5317   82.6237   10.7281 O.3     1  UNL1       -0.4714
     15 C          63.9900   81.5079   11.5715 C.3     1  UNL1        0.2525
     16 C          63.8642   81.6829   13.0560 C.3     1  UNL1        0.2525
     17 O          64.7351   82.6731   13.7709 O.3     1  UNL1       -0.4697
     18 C          64.1181   83.7009   14.6725 C.ar    1  UNL1        0.1596
     19 C          64.8992   84.9196   15.0655 C.ar    1  UNL1        0.0921
     20 CL         66.2974   85.1105   14.5570 Cl      1  UNL1       -0.0791
     21 C          64.2822   85.9475   15.9670 C.ar    1  UNL1        0.0103
     22 C          62.8840   85.7567   16.4755 C.ar    1  UNL1       -0.0200
     23 C          62.2670   86.7846   17.3771 C.3     1  UNL1        0.0311
     24 C          62.1028   84.5379   16.0825 C.ar    1  UNL1        0.0103
     25 C          62.7198   83.5101   15.1810 C.ar    1  UNL1        0.0921
     26 CL         61.9386   82.2914   14.7879 Cl      1  UNL1       -0.0791
     27 N          61.7064   89.4045   11.5325 N.am    1  UNL1       -0.2770
     28 C          62.0668   88.6630   10.2794 C.2     1  UNL1        0.2270
     29 O          63.4864   88.2428   10.0386 O.2     1  UNL1       -0.2748
     30 C          60.2868   89.8248   11.7733 C.3     1  UNL1        0.0758
     31 C          58.9262   89.5416   12.3377 C.3     1  UNL1        0.0215
     32 C          59.1886   90.8358   11.6261 C.3     1  UNL1        0.0215
     33 C          62.7657   89.7258   12.5448 C.3     1  UNL1        0.1209
     34 C          65.6940   92.3490   13.0877 C.ar    1  UNL1       -0.0210
     35 C          65.6728   93.0732   11.7743 C.ar    1  UNL1       -0.0034
     36 C          64.6827   92.6817   10.7177 C.ar    1  UNL1        0.0108
     37 C          63.7137   91.5659   10.9746 C.ar    1  UNL1        0.0553
     38 CL         62.7236   91.1743    9.9181 Cl      1  UNL1       -0.0825
     39 C          63.7348   90.8416   12.2880 C.ar    1  UNL1        0.0079
     40 C          64.7249   91.2332   13.3446 C.ar    1  UNL1       -0.0060
     41 C          66.6841   92.7406   14.1443 C.3     1  UNL1        0.0434
     42 C          67.7152   91.7548   14.6081 C.3     1  UNL1        0.0733
     43 C          68.9539   93.6467   15.8875 C.3     1  UNL1        0.0859
     44 N          68.8185   92.1980   15.5227 N.3     1  UNL1       -0.2960
     45 H          68.7014   91.6841   16.3959 H       1  UNL1        0.1233
@<TRIPOS>BOND
     1    43    44    1
     2    44    42    1
     3    42    41    1
     4    41    34    1
     5    34    35   ar
     6    35    36   ar
     7    36    37   ar
     8    37    38    1
     9    37    39   ar
    10    39    33    1
    11    33    27    1
    12    27    28   am
    13    28    29    2
    14     1    28    1
    15     1     2    1
    16     2     3    1
    17     3     4    1
    18     4     5    1
    19     5     6    1
    20     6     8    1
    21     8     9   ar
    22     9    10   ar
    23    10    11   ar
    24    11    14    1
    25    14    15    1
    26    15    16    1
    27    16    17    1
    28    17    18    1
    29    18    19   ar
    30    19    20    1
    31    19    21   ar
    32    21    22   ar
    33    22    23    1
    34    22    24   ar
    35    24    25   ar
    36    25    26    1
    37    11    12   ar
    38    12    13   ar
    39    27    30    1
    40    30    31    1
    41    31    32    1
    42    39    40   ar
    43    40    34   ar
    44     6     1    1
    45    13     8   ar
    46    32    30    1
    47    25    18   ar
    48    44    45    1
    49     3     7    1
@<TRIPOS>MOLECULE
*****
 45 49 0 0 0
SMALL
GASTEIGER

@<TRIPOS>ATOM
      1 C          60.3175   87.7046    9.6081 C.3     1  UNL1        0.0964
      2 C          59.4361   87.0531    8.5840 C.3     1  UNL1        0.0780
      3 N          59.1309   87.7615    7.2976 N.3     1  UNL1       -0.2970
      4 C          59.7071   89.1212    7.0351 C.3     1  UNL1        0.0689
      5 C          60.5885   89.7727    8.0592 C.3     1  UNL1        0.0220
      6 C          60.8937   89.0644    9.3457 C.3     1  UNL1        0.0337
      7 H          58.1166   87.8568    7.2474 H       1  UNL1        0.1233
      8 C          61.7751   89.7159   10.3697 C.ar    1  UNL1       -0.0217
      9 C          61.4041   89.6618   11.8220 C.ar    1  UNL1       -0.0012
     10 C          62.2855   90.3133   12.8461 C.ar    1  UNL1        0.0366
     11 C          63.5380   91.0188   12.4178 C.ar    1  UNL1        0.1387
     12 C          63.9090   91.0729   10.9655 C.ar    1  UNL1        0.0366
     13 C          63.0276   90.4214    9.9414 C.ar    1  UNL1       -0.0012
     14 O          64.4194   91.6703   13.4418 O.3     1  UNL1       -0.4714
     15 C          65.8514   91.2451   13.5784 C.3     1  UNL1        0.2525
     16 C          66.9513   92.1571   13.1218 C.3     1  UNL1        0.2525
     17 O          67.4389   92.0930   11.7047 O.3     1  UNL1       -0.4697
     18 C          67.2871   93.2835   10.8048 C.ar    1  UNL1        0.1596
     19 C          67.8265   93.2398    9.4058 C.ar    1  UNL1        0.0921
     20 CL         68.5177   92.0057    8.9067 Cl      1  UNL1       -0.0791
     21 C          67.6747   94.4303    8.5060 C.ar    1  UNL1        0.0103
     22 C          66.9836   95.6644    9.0051 C.ar    1  UNL1       -0.0200
     23 C          66.8318   96.8549    8.1052 C.3     1  UNL1        0.0311
     24 C          66.4442   95.7082   10.4041 C.ar    1  UNL1        0.0103
     25 C          66.5959   94.5177   11.3040 C.ar    1  UNL1        0.0921
     26 CL         66.0566   94.5614   12.7029 Cl      1  UNL1       -0.0791
     27 N          61.6455   85.8994   10.9225 N.am    1  UNL1       -0.2770
     28 C          60.6227   86.9962   10.8946 C.2     1  UNL1        0.2270
     29 O          59.9051   87.3847   12.1532 O.2     1  UNL1       -0.2748
     30 C          62.3632   85.5109    9.6639 C.3     1  UNL1        0.0758
     31 C          62.8715   85.8623    8.2971 C.3     1  UNL1        0.0215
     32 C          63.0978   84.4867    8.8508 C.3     1  UNL1        0.0215
     33 C          61.9508   85.1910   12.2090 C.3     1  UNL1        0.1209
     34 C          64.3820   87.4654   14.3692 C.ar    1  UNL1       -0.0210
     35 C          65.4620   86.4818   14.7101 C.ar    1  UNL1       -0.0034
     36 C          65.3716   85.0680   14.2172 C.ar    1  UNL1        0.0108
     37 C          64.2012   84.6377   13.3835 C.ar    1  UNL1        0.0553
     38 CL         64.1108   83.2239   12.8907 Cl      1  UNL1       -0.0825
     39 C          63.1212   85.6212   13.0427 C.ar    1  UNL1        0.0079
     40 C          63.2116   87.0351   13.5356 C.ar    1  UNL1       -0.0060
     41 C          64.4724   88.8792   14.8621 C.3     1  UNL1        0.0434
     42 C          63.6244   89.3271   16.0154 C.3     1  UNL1        0.0733
     43 C          64.1678   91.7737   16.7003 C.3     1  UNL1        0.0859
     44 N          63.2143   90.7654   16.1308 N.3     1  UNL1       -0.2960
     45 H          62.9794   91.0810   15.1898 H       1  UNL1        0.1233
@<TRIPOS>BOND
     1    43    44    1
     2    44    42    1
     3    42    41    1
     4    41    34    1
     5    34    35   ar
     6    35    36   ar
     7    36    37   ar
     8    37    38    1
     9    37    39   ar
    10    39    33    1
    11    33    27    1
    12    27    28   am
    13    28    29    2
    14     1    28    1
    15     1     2    1
    16     2     3    1
    17     3     4    1
    18     4     5    1
    19     5     6    1
    20     6     8    1
    21     8     9   ar
    22     9    10   ar
    23    10    11   ar
    24    11    14    1
    25    14    15    1
    26    15    16    1
    27    16    17    1
    28    17    18    1
    29    18    19   ar
    30    19    20    1
    31    19    21   ar
    32    21    22   ar
    33    22    23    1
    34    22    24   ar
    35    24    25   ar
    36    25    26    1
    37    11    12   ar
    38    12    13   ar
    39    27    30    1
    40    30    31    1
    41    31    32    1
    42    39    40   ar
    43    40    34   ar
    44     6     1    1
    45    13     8   ar
    46    32    30    1
    47    25    18   ar
    48    44    45    1
    49     3     7    1
@<TRIPOS>MOLECULE
*****
 45 49 0 0 0
SMALL
GASTEIGER

@<TRIPOS>ATOM
      1 C          62.1403   93.6294    0.3009 C.3     1  UNL1        0.0964
      2 C          63.0375   94.3485   -0.6625 C.3     1  UNL1        0.0780
      3 N          64.3339   94.9336   -0.1862 N.3     1  UNL1       -0.2970
      4 C          64.7332   94.7996    1.2534 C.3     1  UNL1        0.0689
      5 C          63.8361   94.0805    2.2168 C.3     1  UNL1        0.0220
      6 C          62.5396   93.4954    1.7405 C.3     1  UNL1        0.0337
      7 H          64.2989   95.9324   -0.3903 H       1  UNL1        0.1233
      8 C          61.6425   92.7764    2.7038 C.ar    1  UNL1       -0.0217
      9 C          62.1531   91.5841    3.4573 C.ar    1  UNL1       -0.0012
     10 C          61.2560   90.8651    4.4206 C.ar    1  UNL1        0.0366
     11 C          59.8482   91.3382    4.6305 C.ar    1  UNL1        0.1387
     12 C          59.3375   92.5305    3.8771 C.ar    1  UNL1        0.0366
     13 C          60.2347   93.2495    2.9137 C.ar    1  UNL1       -0.0012
     14 O          58.9510   90.6191    5.5939 O.3     1  UNL1       -0.4714
     15 C          59.4963   90.1257    6.9012 C.3     1  UNL1        0.2525
     16 C          59.4981   88.6572    7.2068 C.3     1  UNL1        0.2525
     17 O          59.1387   88.1767    8.5816 O.3     1  UNL1       -0.4697
     18 C          60.1036   87.3283    9.3556 C.ar    1  UNL1        0.1596
     19 C          60.7272   86.1251    8.7129 C.ar    1  UNL1        0.0921
     20 CL         60.3859   85.7702    7.2960 Cl      1  UNL1       -0.0791
     21 C          61.6922   85.2767    9.4869 C.ar    1  UNL1        0.0103
     22 C          62.0335   85.6316   10.9038 C.ar    1  UNL1       -0.0200
     23 C          62.9984   84.7832   11.6778 C.3     1  UNL1        0.0311
     24 C          61.4099   86.8349   11.5466 C.ar    1  UNL1        0.0103
     25 C          60.4450   87.6833   10.7726 C.ar    1  UNL1        0.0921
     26 CL         59.8214   88.8866   11.4153 Cl      1  UNL1       -0.0791
     27 N          59.6436   93.9261   -0.3535 N.am    1  UNL1       -0.2770
     28 C          60.8438   93.0443   -0.1755 C.2     1  UNL1        0.2270
     29 O          60.7477   91.5775   -0.4738 O.2     1  UNL1       -0.2748
     30 C          59.7397   95.3930   -0.0552 C.3     1  UNL1        0.0758
     31 C          59.4984   96.8184   -0.4549 C.3     1  UNL1        0.0215
     32 C          60.1474   96.5082    0.8613 C.3     1  UNL1        0.0215
     33 C          58.3471   93.3410   -0.8298 C.3     1  UNL1        0.1209
     34 C          55.3482   95.5629   -2.1791 C.ar    1  UNL1       -0.0210
     35 C          55.7149   95.6838   -3.6286 C.ar    1  UNL1       -0.0034
     36 C          56.9589   95.0238   -4.1451 C.ar    1  UNL1        0.0108
     37 C          57.8363   94.2429   -3.2122 C.ar    1  UNL1        0.0553
     38 CL         59.0803   93.5829   -3.7287 Cl      1  UNL1       -0.0825
     39 C          57.4697   94.1219   -1.7628 C.ar    1  UNL1        0.0079
     40 C          56.2256   94.7820   -1.2462 C.ar    1  UNL1       -0.0060
     41 C          54.1042   96.2229   -1.6626 C.3     1  UNL1        0.0434
     42 C          52.7567   95.7293   -2.0993 C.3     1  UNL1        0.0733
     43 C          50.7377   96.0984   -3.6921 C.3     1  UNL1        0.0859
     44 N          52.2171   96.1138   -3.4450 N.3     1  UNL1       -0.2960
     45 H          52.5365   97.0647   -3.6296 H       1  UNL1        0.1233
@<TRIPOS>BOND
     1    43    44    1
     2    44    42    1
     3    42    41    1
     4    41    34    1
     5    34    35   ar
     6    35    36   ar
     7    36    37   ar
     8    37    38    1
     9    37    39   ar
    10    39    33    1
    11    33    27    1
    12    27    28   am
    13    28    29    2
    14     1    28    1
    15     1     2    1
    16     2     3    1
    17     3     4    1
    18     4     5    1
    19     5     6    1
    20     6     8    1
    21     8     9   ar
    22     9    10   ar
    23    10    11   ar
    24    11    14    1
    25    14    15    1
    26    15    16    1
    27    16    17    1
    28    17    18    1
    29    18    19   ar
    30    19    20    1
    31    19    21   ar
    32    21    22   ar
    33    22    23    1
    34    22    24   ar
    35    24    25   ar
    36    25    26    1
    37    11    12   ar
    38    12    13   ar
    39    27    30    1
    40    30    31    1
    41    31    32    1
    42    39    40   ar
    43    40    34   ar
    44     6     1    1
    45    13     8   ar
    46    32    30    1
    47    25    18   ar
    48    44    45    1
    49     3     7    1
@<TRIPOS>MOLECULE
*****
 45 49 0 0 0
SMALL
GASTEIGER

@<TRIPOS>ATOM
      1 C          61.0577   86.7825    9.5323 C.3     1  UNL1        0.0964
      2 C          60.0962   86.1870    8.5470 C.3     1  UNL1        0.0780
      3 N          59.2252   87.0808    7.7149 N.3     1  UNL1       -0.2970
      4 C          59.3159   88.5702    7.8681 C.3     1  UNL1        0.0689
      5 C          60.2775   89.1657    8.8534 C.3     1  UNL1        0.0220
      6 C          61.1484   88.2718    9.6855 C.3     1  UNL1        0.0337
      7 H          58.2595   86.8223    7.9172 H       1  UNL1        0.1233
      8 C          62.1100   88.8673   10.6708 C.ar    1  UNL1       -0.0217
      9 C          62.5811   88.0576   11.8422 C.ar    1  UNL1       -0.0012
     10 C          63.5426   88.6531   12.8275 C.ar    1  UNL1        0.0366
     11 C          64.0331   90.0583   12.6413 C.ar    1  UNL1        0.1387
     12 C          63.5620   90.8681   11.4699 C.ar    1  UNL1        0.0366
     13 C          62.6004   90.2726   10.4846 C.ar    1  UNL1       -0.0012
     14 O          64.9947   90.6538   13.6266 O.3     1  UNL1       -0.4714
     15 C          64.6541   91.9365   14.3256 C.3     1  UNL1        0.2525
     16 C          65.7366   92.9207   14.6566 C.3     1  UNL1        0.2525
     17 O          66.1661   93.9341   13.6375 O.3     1  UNL1       -0.4697
     18 C          66.8019   93.4853   12.3552 C.ar    1  UNL1        0.1596
     19 C          66.4571   94.1716   11.0667 C.ar    1  UNL1        0.0921
     20 CL         65.4766   95.3067   11.0606 Cl      1  UNL1       -0.0791
     21 C          67.0929   93.7228    9.7844 C.ar    1  UNL1        0.0103
     22 C          68.0734   92.5877    9.7905 C.ar    1  UNL1       -0.0200
     23 C          68.7092   92.1389    8.5082 C.3     1  UNL1        0.0311
     24 C          68.4182   91.9014   11.0790 C.ar    1  UNL1        0.0103
     25 C          67.7824   92.3502   12.3613 C.ar    1  UNL1        0.0921
     26 CL         68.1272   91.6639   13.6497 Cl      1  UNL1       -0.0791
     27 N          62.8563   84.9151    9.6997 N.am    1  UNL1       -0.2770
     28 C          61.9287   85.8885   10.3644 C.2     1  UNL1        0.2270
     29 O          61.8720   85.9680   11.8612 O.2     1  UNL1       -0.2748
     30 C          62.9131   84.8355    8.2029 C.3     1  UNL1        0.0758
     31 C          63.5398   85.2450    6.9031 C.3     1  UNL1        0.0215
     32 C          62.3846   84.2882    6.9102 C.3     1  UNL1        0.0215
     33 C          63.7273   84.0211   10.5318 C.3     1  UNL1        0.1209
     34 C          62.2855   83.2907   14.1565 C.ar    1  UNL1       -0.0210
     35 C          61.9850   81.8248   14.0519 C.ar    1  UNL1       -0.0034
     36 C          62.2652   81.0910   12.7740 C.ar    1  UNL1        0.0108
     37 C          62.8460   81.8232   11.6006 C.ar    1  UNL1        0.0553
     38 CL         63.1262   81.0894   10.3227 Cl      1  UNL1       -0.0825
     39 C          63.1465   83.2890   11.7052 C.ar    1  UNL1        0.0079
     40 C          62.8663   84.0228   12.9831 C.ar    1  UNL1       -0.0060
     41 C          62.0052   84.0244   15.4344 C.3     1  UNL1        0.0434
     42 C          62.9673   85.0635   15.9291 C.3     1  UNL1        0.0733
     43 C          65.2111   85.8531   14.8842 C.3     1  UNL1        0.0859
     44 N          64.4418   84.8780   15.7252 N.3     1  UNL1       -0.2960
     45 H          64.8702   84.8854   16.6509 H       1  UNL1        0.1233
@<TRIPOS>BOND
     1    43    44    1
     2    44    42    1
     3    42    41    1
     4    41    34    1
     5    34    35   ar
     6    35    36   ar
     7    36    37   ar
     8    37    38    1
     9    37    39   ar
    10    39    33    1
    11    33    27    1
    12    27    28   am
    13    28    29    2
    14     1    28    1
    15     1     2    1
    16     2     3    1
    17     3     4    1
    18     4     5    1
    19     5     6    1
    20     6     8    1
    21     8     9   ar
    22     9    10   ar
    23    10    11   ar
    24    11    14    1
    25    14    15    1
    26    15    16    1
    27    16    17    1
    28    17    18    1
    29    18    19   ar
    30    19    20    1
    31    19    21   ar
    32    21    22   ar
    33    22    23    1
    34    22    24   ar
    35    24    25   ar
    36    25    26    1
    37    11    12   ar
    38    12    13   ar
    39    27    30    1
    40    30    31    1
    41    31    32    1
    42    39    40   ar
    43    40    34   ar
    44     6     1    1
    45    13     8   ar
    46    32    30    1
    47    25    18   ar
    48    44    45    1
    49     3     7    1
