@<TRIPOS>MOLECULE
*****
 63 69 0 0 0
SMALL
GASTEIGER

@<TRIPOS>ATOM
      1 N          65.4989   89.1959   14.5161 N.3     1  UNL1       -0.1862
      2 C          65.7366   87.9383   15.2983 C.3     1  UNL1        0.1775
      3 C          64.9233   86.7112   15.0107 C.2     1  UNL1        0.2452
      4 O          65.1610   85.4536   15.7930 O.2     1  UNL1       -0.2732
      5 N          63.8723   86.7417   13.9410 N.am    1  UNL1       -0.2541
      6 C          63.0589   85.5146   13.6534 C.3     1  UNL1        0.1577
      7 C          62.0079   85.5451   12.5837 C.2     1  UNL1        0.2445
      8 O          61.1946   84.3180   12.2962 O.2     1  UNL1       -0.2731
      9 N          61.7702   86.8027   11.8014 N.am    1  UNL1       -0.2705
     10 C          62.5835   88.0298   12.0890 C.3     1  UNL1        0.1359
     11 C          63.6346   87.9993   13.1588 C.3     1  UNL1        0.1908
     12 N          64.4479   89.2264   13.4463 N.am    1  UNL1       -0.1863
     13 C          64.2102   90.4841   12.6640 C.2     1  UNL1        0.3191
     14 O          63.1592   90.5146   11.5943 O.2     1  UNL1       -0.2512
     15 N          65.0235   91.7112   12.9516 N.am    1  UNL1       -0.2836
     16 H          65.7134   91.6912   13.6537 H       1  UNL1        0.1513
     17 C          66.3123   90.4230   14.8036 C.3     1  UNL1        0.1188
     18 C          66.5860   92.7017   16.0212 C.2     1  UNL1       -0.0034
     19 C          65.7365   91.5248   15.6430 C.2     1  UNL1       -0.0071
     20 C          63.2966   84.2570   14.4356 C.3     1  UNL1        0.0556
     21 C          63.1127   82.9202   13.7805 C.ar    1  UNL1       -0.0198
     22 C          62.1914   81.9061   14.3912 C.ar    1  UNL1       -0.0011
     23 C          62.0075   80.5693   13.7361 C.ar    1  UNL1        0.0363
     24 C          62.7447   80.2466   12.4703 C.ar    1  UNL1        0.1337
     25 O          62.5608   78.9098   11.8152 O.3     1  UNL1       -0.5055
     26 C          63.6660   81.2607   11.8596 C.ar    1  UNL1        0.0363
     27 C          63.8500   82.5975   12.5147 C.ar    1  UNL1       -0.0011
     28 H          61.9853   78.2764   12.1967 H       1  UNL1        0.2922
     29 C          60.7192   86.8332   10.7317 C.3     1  UNL1        0.1217
     30 C          60.3564   88.1314   10.0734 C.ar    1  UNL1        0.0135
     31 C          60.0137   89.3272   10.9116 C.ar    1  UNL1       -0.0012
     32 C          59.6509   90.6254   10.2534 C.ar    1  UNL1       -0.0002
     33 C          59.6309   90.7276    8.7571 C.ar    1  UNL1        0.0015
     34 C          59.9736   89.5318    7.9189 C.ar    1  UNL1        0.0170
     35 C          60.0386   89.3325    6.4337 C.ar    1  UNL1        0.0201
     36 C          60.4416   87.9112    6.1739 C.ar    1  UNL1        0.0760
     37 N          60.6256   87.2321    7.4986 N.ar    1  UNL1       -0.3242
     38 C          61.0281   85.8024    7.7081 C.3     1  UNL1        0.1305
     39 C          60.3363   88.2337    8.5771 C.ar    1  UNL1        0.0575
     40 C          59.7511   90.3721    5.3911 C.ar    1  UNL1        0.0208
     41 C          60.8711   90.9439    4.5734 C.ar    1  UNL1        0.0045
     42 C          60.5836   91.9834    3.5310 C.ar    1  UNL1        0.0345
     43 C          59.1762   92.4511    3.3062 C.ar    1  UNL1        0.1334
     44 N          58.0562   91.8792    4.1239 N.ar    1  UNL1       -0.2290
     45 C          58.3437   90.8397    5.1663 C.ar    1  UNL1        0.1003
     46 N          58.8887   93.4906    2.2637 N.am    1  UNL1       -0.2810
     47 H          58.4964   94.3548    2.5254 H       1  UNL1        0.1553
     48 C          59.1990   93.2134    0.8225 C.2     1  UNL1        0.1444
     49 S          60.4566   93.7536    0.2089 S.2     1  UNL1       -0.0180
     50 N          58.2517   92.3962   -0.0049 N.am    1  UNL1       -0.2327
     51 C          57.1912   93.0746   -0.8203 C.2     1  UNL1        0.4066
     52 O          57.0780   94.5703   -0.8083 O.2     1  UNL1       -0.2260
     53 H          58.3260   91.4145   -0.0127 H       1  UNL1        0.1599
     54 O          56.2438   92.2575   -1.6477 O.3     1  UNL1       -0.4344
     55 C          56.5892   91.9175   -3.0673 C.3     1  UNL1        0.2102
     56 C          57.9011   92.3580   -3.6461 C.3     1  UNL1        0.0513
     57 C          64.7859   92.9688   12.1694 C.3     1  UNL1        0.1177
     58 C          65.7857   93.4145   11.1439 C.ar    1  UNL1       -0.0025
     59 C          65.7554   94.8232   10.6295 C.ar    1  UNL1       -0.0026
     60 C          66.7552   95.2688    9.6040 C.ar    1  UNL1       -0.0003
     61 C          67.7854   94.3058    9.0929 C.ar    1  UNL1       -0.0000
     62 C          67.8158   92.8971    9.6073 C.ar    1  UNL1       -0.0003
     63 C          66.8159   92.4514   10.6328 C.ar    1  UNL1       -0.0026
@<TRIPOS>BOND
     1    18    19    2
     2    19    17    1
     3    17     1    1
     4     1     2    1
     5     2     3    1
     6     3     4    2
     7     3     5   am
     8     5     6    1
     9     6    20    1
    10    20    21    1
    11    21    22   ar
    12    22    23   ar
    13    23    24   ar
    14    24    25    1
    15    24    26   ar
    16    26    27   ar
    17     6     7    1
    18     7     8    2
    19     7     9   am
    20     9    29    1
    21    29    30    1
    22    30    31   ar
    23    31    32   ar
    24    32    33   ar
    25    33    34   ar
    26    34    35   ar
    27    35    40    1
    28    40    41   ar
    29    41    42   ar
    30    42    43   ar
    31    43    46    1
    32    46    48    1
    33    48    49    2
    34    48    50    1
    35    50    51   am
    36    51    52    2
    37    51    54    1
    38    54    55    1
    39    55    56    1
    40    43    44   ar
    41    44    45   ar
    42    35    36   ar
    43    36    37   ar
    44    37    38    1
    45    37    39   ar
    46     9    10    1
    47    11    10    1
    48    11    12    1
    49    12    13   am
    50    13    14    2
    51    13    15   am
    52    15    57    1
    53    57    58    1
    54    58    59   ar
    55    59    60   ar
    56    60    61   ar
    57    61    62   ar
    58    62    63   ar
    59    12     1    1
    60    63    58   ar
    61    11     5    1
    62    27    21   ar
    63    39    30   ar
    64    39    34   ar
    65    45    40   ar
    66    25    28    1
    67    46    47    1
    68    50    53    1
    69    15    16    1
@<TRIPOS>MOLECULE
*****
 63 69 0 0 0
SMALL
GASTEIGER

@<TRIPOS>ATOM
      1 N          65.6945   89.3701   14.5028 N.3     1  UNL1       -0.1862
      2 C          65.9804   88.1378   15.3087 C.3     1  UNL1        0.1775
      3 C          65.1693   86.8948   15.0918 C.2     1  UNL1        0.2452
      4 O          65.4552   85.6625   15.8978 O.2     1  UNL1       -0.2732
      5 N          64.0722   86.8842   14.0690 N.am    1  UNL1       -0.2541
      6 C          63.2611   85.6412   13.8520 C.3     1  UNL1        0.1577
      7 C          62.1640   85.6306   12.8292 C.2     1  UNL1        0.2445
      8 O          61.3529   84.3876   12.6122 O.2     1  UNL1       -0.2731
      9 N          61.8780   86.8629   12.0231 N.am    1  UNL1       -0.2705
     10 C          62.6892   88.1059   12.2401 C.3     1  UNL1        0.1359
     11 C          63.7863   88.1165   13.2630 C.3     1  UNL1        0.1908
     12 N          64.5974   89.3595   13.4799 N.am    1  UNL1       -0.1863
     13 C          64.3115   90.5918   12.6739 C.2     1  UNL1        0.3191
     14 O          63.2144   90.5812   11.6511 O.2     1  UNL1       -0.2512
     15 N          65.1226   91.8348   12.8908 N.am    1  UNL1       -0.2836
     16 H          65.8427   91.8418   13.5622 H       1  UNL1        0.1513
     17 C          66.5056   90.6131   14.7197 C.3     1  UNL1        0.1188
     18 C          66.9064   92.8381   15.9999 C.2     1  UNL1       -0.0034
     19 C          66.0408   91.6508   15.6980 C.2     1  UNL1       -0.0071
     20 C          63.5470   84.4089   14.6580 C.3     1  UNL1        0.0556
     21 C          63.2694   83.0531   14.0793 C.ar    1  UNL1       -0.0198
     22 C          64.1699   82.4913   13.0195 C.ar    1  UNL1       -0.0011
     23 C          63.8923   81.1355   12.4408 C.ar    1  UNL1        0.0363
     24 C          62.7142   80.3416   12.9220 C.ar    1  UNL1        0.1337
     25 O          62.4366   78.9858   12.3433 O.3     1  UNL1       -0.5055
     26 C          61.8135   80.9034   13.9819 C.ar    1  UNL1        0.0363
     27 C          62.0911   82.2592   14.5606 C.ar    1  UNL1       -0.0011
     28 H          62.9991   78.6349   11.6813 H       1  UNL1        0.2922
     29 C          60.7810   86.8523   11.0003 C.3     1  UNL1        0.1217
     30 C          60.3824   88.1255   10.3146 C.ar    1  UNL1        0.0135
     31 C          60.0202   89.3332   11.1271 C.ar    1  UNL1       -0.0012
     32 C          59.6216   90.6064   10.4415 C.ar    1  UNL1       -0.0002
     33 C          59.5854   90.6719    8.9434 C.ar    1  UNL1        0.0015
     34 C          59.9477   89.4642    8.1309 C.ar    1  UNL1        0.0170
     35 C          60.0035   89.2304    6.6503 C.ar    1  UNL1        0.0201
     36 C          60.4366   87.8127    6.4208 C.ar    1  UNL1        0.0760
     37 N          60.6483   87.1704    7.7596 N.ar    1  UNL1       -0.3242
     38 C          61.0855   85.7557    7.9995 C.3     1  UNL1        0.1305
     39 C          60.3462   88.1910    8.8165 C.ar    1  UNL1        0.0575
     40 C          59.6826   90.2376    5.5859 C.ar    1  UNL1        0.0208
     41 C          58.2643   90.6765    5.3718 C.ar    1  UNL1        0.0045
     42 C          57.9436   91.6836    4.3075 C.ar    1  UNL1        0.0345
     43 C          59.0409   92.2518    3.4573 C.ar    1  UNL1        0.1334
     44 N          60.4592   91.8128    3.6714 N.ar    1  UNL1       -0.2290
     45 C          60.7800   90.8057    4.7357 C.ar    1  UNL1        0.1003
     46 N          58.7201   93.2589    2.3930 N.am    1  UNL1       -0.2810
     47 H          58.0488   93.9585    2.5637 H       1  UNL1        0.1553
     48 C          59.4218   93.2000    1.0686 C.2     1  UNL1        0.1444
     49 S          58.7230   93.6718   -0.1720 S.2     1  UNL1       -0.0180
     50 N          60.8224   92.6695    0.9848 N.am    1  UNL1       -0.2327
     51 C          61.9869   93.6123    1.0556 C.2     1  UNL1        0.4066
     52 O          61.7509   95.0855    1.2102 O.2     1  UNL1       -0.2260
     53 H          60.9772   91.7026    0.8833 H       1  UNL1        0.1599
     54 O          63.3875   93.0819    0.9719 O.3     1  UNL1       -0.4344
     55 C          64.5515   93.9956    1.2170 C.3     1  UNL1        0.2102
     56 C          65.1056   94.8221    0.0946 C.3     1  UNL1        0.0513
     57 C          64.8367   93.0671   12.0849 C.3     1  UNL1        0.1177
     58 C          65.8479   93.5685   11.0969 C.ar    1  UNL1       -0.0025
     59 C          65.9023   95.0279   10.7545 C.ar    1  UNL1       -0.0026
     60 C          66.9135   95.5292    9.7665 C.ar    1  UNL1       -0.0003
     61 C          67.8703   94.5712    9.1209 C.ar    1  UNL1       -0.0000
     62 C          67.8159   93.1118    9.4633 C.ar    1  UNL1       -0.0003
     63 C          66.8047   92.6104   10.4513 C.ar    1  UNL1       -0.0026
@<TRIPOS>BOND
     1    18    19    2
     2    19    17    1
     3    17     1    1
     4     1     2    1
     5     2     3    1
     6     3     4    2
     7     3     5   am
     8     5     6    1
     9     6    20    1
    10    20    21    1
    11    21    22   ar
    12    22    23   ar
    13    23    24   ar
    14    24    25    1
    15    24    26   ar
    16    26    27   ar
    17     6     7    1
    18     7     8    2
    19     7     9   am
    20     9    29    1
    21    29    30    1
    22    30    31   ar
    23    31    32   ar
    24    32    33   ar
    25    33    34   ar
    26    34    35   ar
    27    35    40    1
    28    40    41   ar
    29    41    42   ar
    30    42    43   ar
    31    43    46    1
    32    46    48    1
    33    48    49    2
    34    48    50    1
    35    50    51   am
    36    51    52    2
    37    51    54    1
    38    54    55    1
    39    55    56    1
    40    43    44   ar
    41    44    45   ar
    42    35    36   ar
    43    36    37   ar
    44    37    38    1
    45    37    39   ar
    46     9    10    1
    47    11    10    1
    48    11    12    1
    49    12    13   am
    50    13    14    2
    51    13    15   am
    52    15    57    1
    53    57    58    1
    54    58    59   ar
    55    59    60   ar
    56    60    61   ar
    57    61    62   ar
    58    62    63   ar
    59    12     1    1
    60    63    58   ar
    61    11     5    1
    62    27    21   ar
    63    39    30   ar
    64    39    34   ar
    65    45    40   ar
    66    25    28    1
    67    46    47    1
    68    50    53    1
    69    15    16    1
@<TRIPOS>MOLECULE
*****
 63 69 0 0 0
SMALL
GASTEIGER

@<TRIPOS>ATOM
      1 N          64.5830   83.1801   13.3114 N.3     1  UNL1       -0.1862
      2 C          65.2060   84.0412   14.3698 C.3     1  UNL1        0.1775
      3 C          64.7943   85.4771   14.5068 C.2     1  UNL1        0.2452
      4 O          65.4173   86.3383   15.5652 O.2     1  UNL1       -0.2732
      5 N          63.7595   86.0518   13.5854 N.am    1  UNL1       -0.2541
      6 C          63.3478   87.4876   13.7224 C.3     1  UNL1        0.1577
      7 C          62.3130   88.0623   12.8010 C.2     1  UNL1        0.2445
      8 O          61.9013   89.4982   12.9379 O.2     1  UNL1       -0.2731
      9 N          61.6899   87.2011   11.7425 N.am    1  UNL1       -0.2705
     10 C          62.1017   85.7652   11.6056 C.3     1  UNL1        0.1359
     11 C          63.1365   85.1906   12.5270 C.3     1  UNL1        0.1908
     12 N          63.5483   83.7547   12.3901 N.am    1  UNL1       -0.1863
     13 C          62.9252   82.8935   11.3316 C.2     1  UNL1        0.3191
     14 O          61.8905   83.4682   10.4102 O.2     1  UNL1       -0.2512
     15 N          63.3370   81.4576   11.1947 N.am    1  UNL1       -0.2836
     16 H          64.0161   81.0805   11.7994 H       1  UNL1        0.1513
     17 C          64.9948   81.7442   13.1745 C.3     1  UNL1        0.1188
     18 C          62.9452   80.3805   14.0047 C.2     1  UNL1       -0.0034
     19 C          64.4074   80.7055   14.0834 C.2     1  UNL1       -0.0071
     20 C          63.9708   88.3488   14.7807 C.3     1  UNL1        0.0556
     21 C          64.4778   89.7168   14.4321 C.ar    1  UNL1       -0.0198
     22 C          64.5097   90.1625   13.0002 C.ar    1  UNL1       -0.0011
     23 C          65.0167   91.5305   12.6516 C.ar    1  UNL1        0.0363
     24 C          65.4918   92.4528   13.7348 C.ar    1  UNL1        0.1337
     25 O          65.9988   93.8208   13.3862 O.3     1  UNL1       -0.5055
     26 C          65.4599   92.0072   15.1668 C.ar    1  UNL1        0.0363
     27 C          64.9529   90.6392   15.5154 C.ar    1  UNL1       -0.0011
     28 H          66.0187   94.0992   12.4917 H       1  UNL1        0.2922
     29 C          60.6552   87.7758   10.8212 C.3     1  UNL1        0.1217
     30 C          61.0145   88.9041    9.9004 C.ar    1  UNL1        0.0135
     31 C          62.0516   89.9067   10.3118 C.ar    1  UNL1       -0.0012
     32 C          62.4109   91.0350    9.3911 C.ar    1  UNL1       -0.0002
     33 C          61.7331   91.1607    8.0590 C.ar    1  UNL1        0.0015
     34 C          60.6961   90.1582    7.6475 C.ar    1  UNL1        0.0170
     35 C          59.8655   90.0254    6.4055 C.ar    1  UNL1        0.0201
     36 C          58.9928   88.8150    6.5587 C.ar    1  UNL1        0.0760
     37 N          59.2841   88.1998    7.8952 N.ar    1  UNL1       -0.3242
     38 C          58.6364   86.9703    8.4598 C.3     1  UNL1        0.1305
     39 C          60.3367   89.0299    8.5682 C.ar    1  UNL1        0.0575
     40 C          59.9013   90.9421    5.2187 C.ar    1  UNL1        0.0208
     41 C          61.1977   91.2014    4.5101 C.ar    1  UNL1        0.0045
     42 C          61.2334   92.1181    3.3234 C.ar    1  UNL1        0.0345
     43 C          59.9728   92.7755    2.8452 C.ar    1  UNL1        0.1334
     44 N          58.6764   92.5162    3.5538 N.ar    1  UNL1       -0.2290
     45 C          58.6407   91.5996    4.7405 C.ar    1  UNL1        0.1003
     46 N          60.0086   93.6922    1.6585 N.am    1  UNL1       -0.2810
     47 H          60.0676   94.6660    1.7903 H       1  UNL1        0.1553
     48 C          59.9545   93.1252    0.2708 C.2     1  UNL1        0.1444
     49 S          61.1240   93.2918   -0.6536 S.2     1  UNL1       -0.0180
     50 N          58.7309   92.3916   -0.1925 N.am    1  UNL1       -0.2327
     51 C          57.5300   93.1580   -0.6622 C.2     1  UNL1        0.4066
     52 O          57.5528   94.6578   -0.6686 O.2     1  UNL1       -0.2260
     53 H          58.7159   91.4073   -0.1883 H       1  UNL1        0.1599
     54 O          56.3063   92.4245   -1.1255 O.3     1  UNL1       -0.4344
     55 C          56.0839   92.1865   -2.5897 C.3     1  UNL1        0.2102
     56 C          55.9404   90.7865   -3.1086 C.3     1  UNL1        0.0513
     57 C          62.7140   80.5964   10.1363 C.3     1  UNL1        0.1177
     58 C          63.0740   79.1432   10.0439 C.ar    1  UNL1       -0.0025
     59 C          64.0265   78.6723    8.9852 C.ar    1  UNL1       -0.0026
     60 C          64.3865   77.2191    8.8929 C.ar    1  UNL1       -0.0003
     61 C          63.7940   76.2368    9.8592 C.ar    1  UNL1       -0.0000
     62 C          62.8414   76.7076   10.9180 C.ar    1  UNL1       -0.0003
     63 C          62.4814   78.1609   11.0103 C.ar    1  UNL1       -0.0026
@<TRIPOS>BOND
     1    18    19    2
     2    19    17    1
     3    17     1    1
     4     1     2    1
     5     2     3    1
     6     3     4    2
     7     3     5   am
     8     5     6    1
     9     6    20    1
    10    20    21    1
    11    21    22   ar
    12    22    23   ar
    13    23    24   ar
    14    24    25    1
    15    24    26   ar
    16    26    27   ar
    17     6     7    1
    18     7     8    2
    19     7     9   am
    20     9    29    1
    21    29    30    1
    22    30    31   ar
    23    31    32   ar
    24    32    33   ar
    25    33    34   ar
    26    34    35   ar
    27    35    40    1
    28    40    41   ar
    29    41    42   ar
    30    42    43   ar
    31    43    46    1
    32    46    48    1
    33    48    49    2
    34    48    50    1
    35    50    51   am
    36    51    52    2
    37    51    54    1
    38    54    55    1
    39    55    56    1
    40    43    44   ar
    41    44    45   ar
    42    35    36   ar
    43    36    37   ar
    44    37    38    1
    45    37    39   ar
    46     9    10    1
    47    11    10    1
    48    11    12    1
    49    12    13   am
    50    13    14    2
    51    13    15   am
    52    15    57    1
    53    57    58    1
    54    58    59   ar
    55    59    60   ar
    56    60    61   ar
    57    61    62   ar
    58    62    63   ar
    59    12     1    1
    60    63    58   ar
    61    11     5    1
    62    27    21   ar
    63    39    30   ar
    64    39    34   ar
    65    45    40   ar
    66    25    28    1
    67    46    47    1
    68    50    53    1
    69    15    16    1
@<TRIPOS>MOLECULE
*****
 63 69 0 0 0
SMALL
GASTEIGER

@<TRIPOS>ATOM
      1 N          64.5783   83.1766   13.2892 N.3     1  UNL1       -0.1862
      2 C          65.1901   84.0462   14.3473 C.3     1  UNL1        0.1775
      3 C          64.7718   85.4812   14.4731 C.2     1  UNL1        0.2452
      4 O          65.3837   86.3507   15.5312 O.2     1  UNL1       -0.2732
      5 N          63.7417   86.0466   13.5409 N.am    1  UNL1       -0.2541
      6 C          63.3234   87.4816   13.6667 C.3     1  UNL1        0.1577
      7 C          62.2932   88.0470   12.7345 C.2     1  UNL1        0.2445
      8 O          61.8749   89.4820   12.8603 O.2     1  UNL1       -0.2731
      9 N          61.6813   87.1774   11.6764 N.am    1  UNL1       -0.2705
     10 C          62.0997   85.7424   11.5506 C.3     1  UNL1        0.1359
     11 C          63.1299   85.1770   12.4828 C.3     1  UNL1        0.1908
     12 N          63.5482   83.7420   12.3570 N.am    1  UNL1       -0.1863
     13 C          62.9363   82.8725   11.2989 C.2     1  UNL1        0.3191
     14 O          61.9061   83.4379   10.3667 O.2     1  UNL1       -0.2512
     15 N          63.3546   81.4375   11.1731 N.am    1  UNL1       -0.2836
     16 H          64.0307   81.0664   11.7850 H       1  UNL1        0.1513
     17 C          64.9966   81.7416   13.1634 C.3     1  UNL1        0.1188
     18 C          62.8396   80.6316   14.0935 C.2     1  UNL1       -0.0034
     19 C          64.3359   80.6912   14.0059 C.2     1  UNL1       -0.0071
     20 C          63.9352   88.3511   14.7247 C.3     1  UNL1        0.0556
     21 C          64.5661   89.6589   14.3484 C.ar    1  UNL1       -0.0198
     22 C          64.3136   90.2511   12.9935 C.ar    1  UNL1       -0.0011
     23 C          64.9445   91.5588   12.6172 C.ar    1  UNL1        0.0363
     24 C          65.8279   92.2745   13.5956 C.ar    1  UNL1        0.1337
     25 O          66.4588   93.5823   13.2193 O.3     1  UNL1       -0.5055
     26 C          66.0804   91.6824   14.9505 C.ar    1  UNL1        0.0363
     27 C          65.4495   90.3746   15.3269 C.ar    1  UNL1       -0.0011
     28 H          66.3011   93.9522   12.3729 H       1  UNL1        0.2922
     29 C          60.6512   87.7428   10.7442 C.3     1  UNL1        0.1217
     30 C          61.0052   88.8856    9.8393 C.ar    1  UNL1        0.0135
     31 C          62.0282   89.8944   10.2703 C.ar    1  UNL1       -0.0012
     32 C          62.3823   91.0372    9.3654 C.ar    1  UNL1       -0.0002
     33 C          61.7133   91.1711    8.0296 C.ar    1  UNL1        0.0015
     34 C          60.6903   90.1622    7.5986 C.ar    1  UNL1        0.0170
     35 C          59.8707   90.0350    6.3488 C.ar    1  UNL1        0.0201
     36 C          59.0101   88.8136    6.4812 C.ar    1  UNL1        0.0760
     37 N          59.2979   88.1860    7.8128 N.ar    1  UNL1       -0.3242
     38 C          58.6593   86.9431    8.3582 C.3     1  UNL1        0.1305
     39 C          60.3363   89.0195    8.5034 C.ar    1  UNL1        0.0575
     40 C          59.9056   90.9657    5.1729 C.ar    1  UNL1        0.0208
     41 C          61.2014   91.2336    4.4665 C.ar    1  UNL1        0.0045
     42 C          61.2362   92.1643    3.2908 C.ar    1  UNL1        0.0345
     43 C          59.9752   92.8272    2.8213 C.ar    1  UNL1        0.1334
     44 N          58.6793   92.5593    3.5277 N.ar    1  UNL1       -0.2290
     45 C          58.6445   91.6286    4.7035 C.ar    1  UNL1        0.1003
     46 N          60.0101   93.7579    1.6455 N.am    1  UNL1       -0.2810
     47 H          59.8000   94.7121    1.7666 H       1  UNL1        0.1553
     48 C          60.3651   93.2349    0.2852 C.2     1  UNL1        0.1444
     49 S          59.3606   92.4448   -0.5001 S.2     1  UNL1       -0.0180
     50 N          61.7245   93.5021   -0.2898 N.am    1  UNL1       -0.2327
     51 C          62.4181   94.8008   -0.0029 C.2     1  UNL1        0.4066
     52 O          61.7523   95.8322    0.8590 O.2     1  UNL1       -0.2260
     53 H          62.1615   92.8251   -0.8554 H       1  UNL1        0.1599
     54 O          63.7775   95.0680   -0.5778 O.3     1  UNL1       -0.4344
     55 C          65.0064   94.7053    0.2023 C.3     1  UNL1        0.2102
     56 C          65.0156   93.4727    1.0568 C.3     1  UNL1        0.0513
     57 C          62.7428   80.5679   10.1151 C.3     1  UNL1        0.1177
     58 C          63.1020   79.1135   10.0394 C.ar    1  UNL1       -0.0025
     59 C          62.5394   78.1489   11.0409 C.ar    1  UNL1       -0.0026
     60 C          62.8986   76.6946   10.9652 C.ar    1  UNL1       -0.0003
     61 C          63.8204   76.2048    9.8880 C.ar    1  UNL1       -0.0000
     62 C          64.3830   77.1694    8.8864 C.ar    1  UNL1       -0.0003
     63 C          64.0238   78.6238    8.9621 C.ar    1  UNL1       -0.0026
@<TRIPOS>BOND
     1    18    19    2
     2    19    17    1
     3    17     1    1
     4     1     2    1
     5     2     3    1
     6     3     4    2
     7     3     5   am
     8     5     6    1
     9     6    20    1
    10    20    21    1
    11    21    22   ar
    12    22    23   ar
    13    23    24   ar
    14    24    25    1
    15    24    26   ar
    16    26    27   ar
    17     6     7    1
    18     7     8    2
    19     7     9   am
    20     9    29    1
    21    29    30    1
    22    30    31   ar
    23    31    32   ar
    24    32    33   ar
    25    33    34   ar
    26    34    35   ar
    27    35    40    1
    28    40    41   ar
    29    41    42   ar
    30    42    43   ar
    31    43    46    1
    32    46    48    1
    33    48    49    2
    34    48    50    1
    35    50    51   am
    36    51    52    2
    37    51    54    1
    38    54    55    1
    39    55    56    1
    40    43    44   ar
    41    44    45   ar
    42    35    36   ar
    43    36    37   ar
    44    37    38    1
    45    37    39   ar
    46     9    10    1
    47    11    10    1
    48    11    12    1
    49    12    13   am
    50    13    14    2
    51    13    15   am
    52    15    57    1
    53    57    58    1
    54    58    59   ar
    55    59    60   ar
    56    60    61   ar
    57    61    62   ar
    58    62    63   ar
    59    12     1    1
    60    63    58   ar
    61    11     5    1
    62    27    21   ar
    63    39    30   ar
    64    39    34   ar
    65    45    40   ar
    66    25    28    1
    67    46    47    1
    68    50    53    1
    69    15    16    1
