@<TRIPOS>MOLECULE
*****
 32 36 0 0 0
SMALL
GASTEIGER

@<TRIPOS>ATOM
      1 C          61.2653   85.5249    9.8086 C.3     1  UNL1        0.0242
      2 C          61.0220   86.9640   10.1546 C.3     1  UNL1        0.1053
      3 C          59.9729   87.7450    9.4202 C.3     1  UNL1        0.1619
      4 O          59.7296   89.1841    9.7663 O.3     1  UNL1       -0.3502
      5 C          60.5354   89.8423   10.8467 C.3     1  UNL1        0.1622
      6 C          61.5845   89.0613   11.5811 C.3     1  UNL1        0.1095
      7 N          61.8278   87.6222   11.2351 N.am    1  UNL1       -0.2740
      8 C          62.8770   86.8412   11.9696 C.2     1  UNL1        0.2506
      9 O          63.6828   87.4994   13.0500 O.2     1  UNL1       -0.2699
     10 C          63.1203   85.4021   11.6235 C.ar    1  UNL1        0.0729
     11 C          63.2612   84.9893   10.1883 C.ar    1  UNL1        0.0061
     12 C          63.5045   83.5502    9.8423 C.ar    1  UNL1        0.0002
     13 C          63.6069   82.5239   10.9315 C.ar    1  UNL1        0.0016
     14 C          63.4659   82.9367   12.3666 C.ar    1  UNL1        0.0211
     15 C          63.2226   84.3758   12.7126 C.ar    1  UNL1        0.1072
     16 N          63.0817   84.7886   14.1479 N.ar    1  UNL1       -0.1477
     17 N          61.8188   84.7502   14.9563 N.ar    1  UNL1       -0.1447
     18 C          62.1355   85.2501   16.3347 C.ar    1  UNL1        0.1446
     19 C          63.5941   85.5975   16.3780 C.ar    1  UNL1        0.1446
     20 N          64.1789   85.3122   15.0265 N.ar    1  UNL1       -0.1447
     21 C          62.3904   89.7195   12.6616 C.3     1  UNL1        0.0488
     22 C          63.4940   90.6693   12.3011 C.ar    1  UNL1       -0.0189
     23 C          63.5684   91.2419   10.9167 C.ar    1  UNL1       -0.0041
     24 C          64.6720   92.1917   10.5562 C.ar    1  UNL1        0.0013
     25 C          65.7012   92.5688   11.5802 C.ar    1  UNL1        0.0209
     26 C          65.6269   91.9962   12.9645 C.ar    1  UNL1        0.1026
     27 C          64.5233   91.0464   13.3250 C.ar    1  UNL1        0.0167
     28 N          66.6562   92.3733   13.9885 N.ar    1  UNL1       -0.1478
     29 N          66.3791   92.8383   15.3874 N.ar    1  UNL1       -0.1447
     30 C          67.6949   93.1040   16.0567 C.ar    1  UNL1        0.1446
     31 C          68.7853   92.8033   15.0715 C.ar    1  UNL1        0.1446
     32 N          68.1432   92.3517   13.7931 N.ar    1  UNL1       -0.1447
@<TRIPOS>BOND
     1     2     1    1
     2     2     3    1
     3     3     4    1
     4     4     5    1
     5     5     6    1
     6     6    21    1
     7    21    22    1
     8    22    23   ar
     9    23    24   ar
    10    24    25   ar
    11    25    26   ar
    12    26    28    1
    13    28    29   ar
    14    29    30   ar
    15    30    31   ar
    16    31    32   ar
    17    26    27   ar
    18     6     7    1
    19     7     8   am
    20     8     9    2
    21     8    10    1
    22    10    11   ar
    23    11    12   ar
    24    12    13   ar
    25    13    14   ar
    26    14    15   ar
    27    15    16    1
    28    16    17   ar
    29    17    18   ar
    30    18    19   ar
    31    19    20   ar
    32     7     2    1
    33    15    10   ar
    34    20    16   ar
    35    27    22   ar
    36    32    28   ar
@<TRIPOS>MOLECULE
*****
 32 36 0 0 0
SMALL
GASTEIGER

@<TRIPOS>ATOM
      1 C          62.6502   85.6196   11.6281 C.3     1  UNL1        0.0242
      2 C          63.2738   86.4210   12.7322 C.3     1  UNL1        0.1053
      3 C          63.8724   85.7249   13.9184 C.3     1  UNL1        0.1619
      4 O          64.4960   86.5263   15.0224 O.3     1  UNL1       -0.3502
      5 C          64.5210   88.0238   14.9402 C.3     1  UNL1        0.1622
      6 C          63.9224   88.7199   13.7540 C.3     1  UNL1        0.1095
      7 N          63.2988   87.9185   12.6500 N.am    1  UNL1       -0.2740
      8 C          62.7003   88.6147   11.4637 C.2     1  UNL1        0.2506
      9 O          62.7253   90.1122   11.3816 O.2     1  UNL1       -0.2699
     10 C          62.0767   87.8133   10.3597 C.ar    1  UNL1        0.0729
     11 C          62.9224   86.8908    9.5327 C.ar    1  UNL1        0.0061
     12 C          62.2988   86.0894    8.4287 C.ar    1  UNL1        0.0002
     13 C          60.8295   86.2105    8.1517 C.ar    1  UNL1        0.0016
     14 C          59.9839   87.1330    8.9786 C.ar    1  UNL1        0.0211
     15 C          60.6075   87.9344   10.0827 C.ar    1  UNL1        0.1072
     16 N          59.7618   88.8569   10.9097 N.ar    1  UNL1       -0.1477
     17 N          59.0263   88.4910   12.1647 N.ar    1  UNL1       -0.1447
     18 C          58.3131   89.7152   12.6575 C.ar    1  UNL1        0.1446
     19 C          58.6079   90.8376   11.7070 C.ar    1  UNL1        0.1446
     20 N          59.5033   90.3071   10.6268 N.ar    1  UNL1       -0.1447
     21 C          63.9474   90.2175   13.6718 C.3     1  UNL1        0.0488
     22 C          65.2587   90.9437   13.6140 C.ar    1  UNL1       -0.0189
     23 C          66.1965   90.8926   14.7836 C.ar    1  UNL1       -0.0041
     24 C          67.5077   91.6188   14.7258 C.ar    1  UNL1        0.0013
     25 C          67.8812   92.3960   13.4983 C.ar    1  UNL1        0.0209
     26 C          66.9434   92.4470   12.3288 C.ar    1  UNL1        0.1026
     27 C          65.6321   91.7208   12.3866 C.ar    1  UNL1        0.0167
     28 N          67.3168   93.2242   11.1013 N.ar    1  UNL1       -0.1478
     29 N          68.1392   92.7180    9.9535 N.ar    1  UNL1       -0.1447
     30 C          68.2640   93.8250    8.9490 C.ar    1  UNL1        0.1446
     31 C          67.5187   95.0154    9.4760 C.ar    1  UNL1        0.1446
     32 N          66.9332   94.6440   10.8062 N.ar    1  UNL1       -0.1447
@<TRIPOS>BOND
     1     2     1    1
     2     2     3    1
     3     3     4    1
     4     4     5    1
     5     5     6    1
     6     6    21    1
     7    21    22    1
     8    22    23   ar
     9    23    24   ar
    10    24    25   ar
    11    25    26   ar
    12    26    28    1
    13    28    29   ar
    14    29    30   ar
    15    30    31   ar
    16    31    32   ar
    17    26    27   ar
    18     6     7    1
    19     7     8   am
    20     8     9    2
    21     8    10    1
    22    10    11   ar
    23    11    12   ar
    24    12    13   ar
    25    13    14   ar
    26    14    15   ar
    27    15    16    1
    28    16    17   ar
    29    17    18   ar
    30    18    19   ar
    31    19    20   ar
    32     7     2    1
    33    15    10   ar
    34    20    16   ar
    35    27    22   ar
    36    32    28   ar
@<TRIPOS>MOLECULE
*****
 32 36 0 0 0
SMALL
GASTEIGER

@<TRIPOS>ATOM
      1 C          61.8824   86.0040   11.4546 C.3     1  UNL1        0.0242
      2 C          62.2626   87.4429   11.6420 C.3     1  UNL1        0.1053
      3 C          61.6363   88.5020   10.7842 C.3     1  UNL1        0.1619
      4 O          62.0165   89.9408   10.9716 O.3     1  UNL1       -0.3502
      5 C          63.0230   90.3206   12.0169 C.3     1  UNL1        0.1622
      6 C          63.6493   89.2614   12.8748 C.3     1  UNL1        0.1095
      7 N          63.2691   87.8226   12.6873 N.am    1  UNL1       -0.2740
      8 C          63.8954   86.7634   13.5452 C.2     1  UNL1        0.2506
      9 O          64.9020   87.1431   14.5905 O.2     1  UNL1       -0.2699
     10 C          63.5152   85.3246   13.3578 C.ar    1  UNL1        0.0729
     11 C          63.7676   84.6472   12.0434 C.ar    1  UNL1        0.0061
     12 C          63.3874   83.2084   11.8559 C.ar    1  UNL1        0.0002
     13 C          62.7548   82.4469   12.9829 C.ar    1  UNL1        0.0016
     14 C          62.5024   83.1242   14.2972 C.ar    1  UNL1        0.0211
     15 C          62.8826   84.5631   14.4847 C.ar    1  UNL1        0.1072
     16 N          62.6303   85.2404   15.7991 N.ar    1  UNL1       -0.1477
     17 N          63.6684   85.5934   16.8226 N.ar    1  UNL1       -0.1447
     18 C          62.9752   86.2548   17.9768 C.ar    1  UNL1        0.1446
     19 C          61.5087   86.3105   17.6666 C.ar    1  UNL1        0.1446
     20 N          61.2955   85.6835   16.3207 N.ar    1  UNL1       -0.1447
     21 C          64.6559   89.6411   13.9201 C.3     1  UNL1        0.0488
     22 C          65.2860   91.0021   13.8952 C.ar    1  UNL1       -0.0189
     23 C          65.5766   91.7177   15.1811 C.ar    1  UNL1       -0.0041
     24 C          66.2067   93.0787   15.1562 C.ar    1  UNL1        0.0013
     25 C          66.5463   93.7241   13.8454 C.ar    1  UNL1        0.0209
     26 C          66.2558   93.0085   12.5595 C.ar    1  UNL1        0.1026
     27 C          65.6256   91.6475   12.5845 C.ar    1  UNL1        0.0167
     28 N          66.5954   93.6538   11.2487 N.ar    1  UNL1       -0.1478
     29 N          65.9240   94.8586   10.6589 N.ar    1  UNL1       -0.1447
     30 C          66.5797   95.1570    9.3433 C.ar    1  UNL1        0.1446
     31 C          67.6564   94.1367    9.1199 C.ar    1  UNL1        0.1446
     32 N          67.6660   93.2077   10.2976 N.ar    1  UNL1       -0.1447
@<TRIPOS>BOND
     1     2     1    1
     2     2     3    1
     3     3     4    1
     4     4     5    1
     5     5     6    1
     6     6    21    1
     7    21    22    1
     8    22    23   ar
     9    23    24   ar
    10    24    25   ar
    11    25    26   ar
    12    26    28    1
    13    28    29   ar
    14    29    30   ar
    15    30    31   ar
    16    31    32   ar
    17    26    27   ar
    18     6     7    1
    19     7     8   am
    20     8     9    2
    21     8    10    1
    22    10    11   ar
    23    11    12   ar
    24    12    13   ar
    25    13    14   ar
    26    14    15   ar
    27    15    16    1
    28    16    17   ar
    29    17    18   ar
    30    18    19   ar
    31    19    20   ar
    32     7     2    1
    33    15    10   ar
    34    20    16   ar
    35    27    22   ar
    36    32    28   ar
@<TRIPOS>MOLECULE
*****
 32 36 0 0 0
SMALL
GASTEIGER

@<TRIPOS>ATOM
      1 C          61.2993   95.7244    0.9101 C.3     1  UNL1        0.0242
      2 C          59.9458   95.6113    0.2734 C.3     1  UNL1        0.1053
      3 C          59.0588   96.8171    0.1778 C.3     1  UNL1        0.1619
      4 O          57.7054   96.7041   -0.4589 O.3     1  UNL1       -0.3502
      5 C          57.2389   95.3852   -1.0000 C.3     1  UNL1        0.1622
      6 C          58.1259   94.1793   -0.9044 C.3     1  UNL1        0.1095
      7 N          59.4794   94.2924   -0.2677 N.am    1  UNL1       -0.2740
      8 C          60.3664   93.0865   -0.1721 C.2     1  UNL1        0.2506
      9 O          59.8999   91.7676   -0.7133 O.2     1  UNL1       -0.2699
     10 C          61.7198   93.1995    0.4646 C.ar    1  UNL1        0.0729
     11 C          61.9017   92.8381    1.9090 C.ar    1  UNL1        0.0061
     12 C          63.2551   92.9512    2.5457 C.ar    1  UNL1        0.0002
     13 C          64.4267   93.4257    1.7380 C.ar    1  UNL1        0.0016
     14 C          64.2448   93.7871    0.2936 C.ar    1  UNL1        0.0211
     15 C          62.8913   93.6740   -0.3431 C.ar    1  UNL1        0.1072
     16 N          62.7094   94.0354   -1.7876 N.ar    1  UNL1       -0.1477
     17 N          62.5322   95.4210   -2.3341 N.ar    1  UNL1       -0.1447
     18 C          62.3861   95.3167   -3.8234 C.ar    1  UNL1        0.1446
     19 C          62.4731   93.8666   -4.1971 C.ar    1  UNL1        0.1446
     20 N          62.6729   93.0747   -2.9390 N.ar    1  UNL1       -0.1447
     21 C          57.6595   92.8603   -1.4456 C.3     1  UNL1        0.0488
     22 C          57.4376   92.6905   -2.9193 C.ar    1  UNL1       -0.0189
     23 C          58.2759   93.4591   -3.8974 C.ar    1  UNL1       -0.0041
     24 C          58.0541   93.2892   -5.3712 C.ar    1  UNL1        0.0013
     25 C          56.9939   92.3508   -5.8668 C.ar    1  UNL1        0.0209
     26 C          56.1557   91.5823   -4.8887 C.ar    1  UNL1        0.1026
     27 C          56.3775   91.7522   -3.4149 C.ar    1  UNL1        0.0167
     28 N          55.0955   90.6440   -5.3843 N.ar    1  UNL1       -0.1478
     29 N          54.4547   90.6747   -6.7402 N.ar    1  UNL1       -0.1447
     30 C          53.4532   89.5598   -6.8049 C.ar    1  UNL1        0.1446
     31 C          53.4751   88.8401   -5.4890 C.ar    1  UNL1        0.1446
     32 N          54.4902   89.5102   -4.6110 N.ar    1  UNL1       -0.1447
@<TRIPOS>BOND
     1     2     1    1
     2     2     3    1
     3     3     4    1
     4     4     5    1
     5     5     6    1
     6     6    21    1
     7    21    22    1
     8    22    23   ar
     9    23    24   ar
    10    24    25   ar
    11    25    26   ar
    12    26    28    1
    13    28    29   ar
    14    29    30   ar
    15    30    31   ar
    16    31    32   ar
    17    26    27   ar
    18     6     7    1
    19     7     8   am
    20     8     9    2
    21     8    10    1
    22    10    11   ar
    23    11    12   ar
    24    12    13   ar
    25    13    14   ar
    26    14    15   ar
    27    15    16    1
    28    16    17   ar
    29    17    18   ar
    30    18    19   ar
    31    19    20   ar
    32     7     2    1
    33    15    10   ar
    34    20    16   ar
    35    27    22   ar
    36    32    28   ar
@<TRIPOS>MOLECULE
*****
 32 36 0 0 0
SMALL
GASTEIGER

@<TRIPOS>ATOM
      1 C          61.8720   86.2911   10.1217 C.3     1  UNL1        0.0242
      2 C          61.8993   87.7383   10.5153 C.3     1  UNL1        0.1053
      3 C          61.2545   88.7672    9.6347 C.3     1  UNL1        0.1619
      4 O          61.2818   90.2144   10.0283 O.3     1  UNL1       -0.3502
      5 C          61.9540   90.6327   11.3023 C.3     1  UNL1        0.1622
      6 C          62.5988   89.6037   12.1828 C.3     1  UNL1        0.1095
      7 N          62.5715   88.1565   11.7893 N.am    1  UNL1       -0.2740
      8 C          63.2163   87.1275   12.6699 C.2     1  UNL1        0.2506
      9 O          63.8885   87.5457   13.9440 O.2     1  UNL1       -0.2699
     10 C          63.1890   85.6803   12.2764 C.ar    1  UNL1        0.0729
     11 C          63.3069   85.2935   10.8319 C.ar    1  UNL1        0.0061
     12 C          63.2796   83.8463   10.4383 C.ar    1  UNL1        0.0002
     13 C          63.1344   82.7859   11.4893 C.ar    1  UNL1        0.0016
     14 C          63.0165   83.1727   12.9338 C.ar    1  UNL1        0.0211
     15 C          63.0438   84.6199   13.3273 C.ar    1  UNL1        0.1072
     16 N          62.9259   85.0067   14.7718 N.ar    1  UNL1       -0.1477
     17 N          61.6516   85.1043   15.5571 N.ar    1  UNL1       -0.1447
     18 C          61.9997   85.5217   16.9553 C.ar    1  UNL1        0.1446
     19 C          63.4890   85.6820   17.0339 C.ar    1  UNL1        0.1446
     20 N          64.0614   85.3638   15.6845 N.ar    1  UNL1       -0.1447
     21 C          63.2710   90.0219   13.4570 C.3     1  UNL1        0.0488
     22 C          64.5526   90.7997   13.4085 C.ar    1  UNL1       -0.0189
     23 C          65.5526   90.6676   14.5188 C.ar    1  UNL1       -0.0041
     24 C          66.8343   91.4454   14.4703 C.ar    1  UNL1        0.0013
     25 C          67.1160   92.3553   13.3114 C.ar    1  UNL1        0.0209
     26 C          66.1160   92.4874   12.2012 C.ar    1  UNL1        0.1026
     27 C          64.8344   91.7096   12.2497 C.ar    1  UNL1        0.0167
     28 N          66.3977   93.3973   11.0424 N.ar    1  UNL1       -0.1478
     29 N          65.6231   94.6297   10.6805 N.ar    1  UNL1       -0.1447
     30 C          66.2501   95.2286    9.4565 C.ar    1  UNL1        0.1446
     31 C          67.4124   94.3663    9.0619 C.ar    1  UNL1        0.1446
     32 N          67.5036   93.2344   10.0422 N.ar    1  UNL1       -0.1447
@<TRIPOS>BOND
     1     2     1    1
     2     2     3    1
     3     3     4    1
     4     4     5    1
     5     5     6    1
     6     6    21    1
     7    21    22    1
     8    22    23   ar
     9    23    24   ar
    10    24    25   ar
    11    25    26   ar
    12    26    28    1
    13    28    29   ar
    14    29    30   ar
    15    30    31   ar
    16    31    32   ar
    17    26    27   ar
    18     6     7    1
    19     7     8   am
    20     8     9    2
    21     8    10    1
    22    10    11   ar
    23    11    12   ar
    24    12    13   ar
    25    13    14   ar
    26    14    15   ar
    27    15    16    1
    28    16    17   ar
    29    17    18   ar
    30    18    19   ar
    31    19    20   ar
    32     7     2    1
    33    15    10   ar
    34    20    16   ar
    35    27    22   ar
    36    32    28   ar
@<TRIPOS>MOLECULE
*****
 32 36 0 0 0
SMALL
GASTEIGER

@<TRIPOS>ATOM
      1 C          64.5841   88.8046   14.8602 C.3     1  UNL1        0.0242
      2 C          63.8922   88.2202   13.6645 C.3     1  UNL1        0.1053
      3 C          63.7490   86.7329   13.5334 C.3     1  UNL1        0.1619
      4 O          63.0570   86.1486   12.3376 O.3     1  UNL1       -0.3502
      5 C          62.5083   87.0516   11.2730 C.3     1  UNL1        0.1622
      6 C          62.6516   88.5389   11.4041 C.3     1  UNL1        0.1095
      7 N          63.3435   89.1232   12.5999 N.am    1  UNL1       -0.2740
      8 C          63.4867   90.6107   12.7310 C.2     1  UNL1        0.2506
      9 O          62.9380   91.5137   11.6663 O.2     1  UNL1       -0.2699
     10 C          64.1787   91.1950   13.9267 C.ar    1  UNL1        0.0729
     11 C          63.6258   90.9616   15.3015 C.ar    1  UNL1        0.0061
     12 C          64.3178   91.5460   16.4972 C.ar    1  UNL1        0.0002
     13 C          65.5625   92.3637   16.3182 C.ar    1  UNL1        0.0016
     14 C          66.1153   92.5970   14.9434 C.ar    1  UNL1        0.0211
     15 C          65.4234   92.0127   13.7477 C.ar    1  UNL1        0.1072
     16 N          65.9762   92.2461   12.3729 N.ar    1  UNL1       -0.1477
     17 N          67.3482   91.8685   11.8986 N.ar    1  UNL1       -0.1447
     18 C          67.4741   92.2870   10.4636 C.ar    1  UNL1        0.1446
     19 C          66.1798   92.9233   10.0512 C.ar    1  UNL1        0.1446
     20 N          65.2541   92.8980   11.2312 N.ar    1  UNL1       -0.1447
     21 C          62.1029   89.4420   10.3395 C.3     1  UNL1        0.0488
     22 C          61.0741   88.9276    9.3767 C.ar    1  UNL1       -0.0189
     23 C          60.5967   87.5090    9.4762 C.ar    1  UNL1       -0.0041
     24 C          59.5679   86.9946    8.5134 C.ar    1  UNL1        0.0013
     25 C          59.0164   87.8988    7.4511 C.ar    1  UNL1        0.0209
     26 C          59.4938   89.3173    7.3517 C.ar    1  UNL1        0.1026
     27 C          60.5226   89.8317    8.3145 C.ar    1  UNL1        0.0167
     28 N          58.9423   90.2216    6.2894 N.ar    1  UNL1       -0.1478
     29 N          57.4899   90.4414    5.9855 N.ar    1  UNL1       -0.1447
     30 C          57.3964   91.4204    4.8529 C.ar    1  UNL1        0.1446
     31 C          58.7910   91.8055    4.4567 C.ar    1  UNL1        0.1446
     32 N          59.7464   91.0646    5.3446 N.ar    1  UNL1       -0.1447
@<TRIPOS>BOND
     1     2     1    1
     2     2     3    1
     3     3     4    1
     4     4     5    1
     5     5     6    1
     6     6    21    1
     7    21    22    1
     8    22    23   ar
     9    23    24   ar
    10    24    25   ar
    11    25    26   ar
    12    26    28    1
    13    28    29   ar
    14    29    30   ar
    15    30    31   ar
    16    31    32   ar
    17    26    27   ar
    18     6     7    1
    19     7     8   am
    20     8     9    2
    21     8    10    1
    22    10    11   ar
    23    11    12   ar
    24    12    13   ar
    25    13    14   ar
    26    14    15   ar
    27    15    16    1
    28    16    17   ar
    29    17    18   ar
    30    18    19   ar
    31    19    20   ar
    32     7     2    1
    33    15    10   ar
    34    20    16   ar
    35    27    22   ar
    36    32    28   ar
@<TRIPOS>MOLECULE
*****
 32 36 0 0 0
SMALL
GASTEIGER

@<TRIPOS>ATOM
      1 C          60.6742   95.0813    1.3046 C.3     1  UNL1        0.0242
      2 C          59.8824   95.3863    0.0677 C.3     1  UNL1        0.1053
      3 C          58.8437   96.4683    0.0899 C.3     1  UNL1        0.1619
      4 O          58.0519   96.7733   -1.1471 O.3     1  UNL1       -0.3502
      5 C          58.2987   95.9963   -2.4062 C.3     1  UNL1        0.1622
      6 C          59.3373   94.9144   -2.4284 C.3     1  UNL1        0.1095
      7 N          60.1292   94.6094   -1.1914 N.am    1  UNL1       -0.2740
      8 C          61.1679   93.5274   -1.2137 C.2     1  UNL1        0.2506
      9 O          61.4147   92.7504   -2.4728 O.2     1  UNL1       -0.2699
     10 C          61.9597   93.2224    0.0232 C.ar    1  UNL1        0.0729
     11 C          61.4151   92.2704    1.0466 C.ar    1  UNL1        0.0061
     12 C          62.2070   91.9654    2.2836 C.ar    1  UNL1        0.0002
     13 C          63.5434   92.6124    2.4970 C.ar    1  UNL1        0.0016
     14 C          64.0879   93.5643    1.4737 C.ar    1  UNL1        0.0211
     15 C          63.2961   93.8693    0.2367 C.ar    1  UNL1        0.1072
     16 N          63.8407   94.8212   -0.7867 N.ar    1  UNL1       -0.1477
     17 N          64.3134   94.4597   -2.1636 N.ar    1  UNL1       -0.1447
     18 C          64.7730   95.7168   -2.8408 C.ar    1  UNL1        0.1446
     19 C          64.5843   96.8552   -1.8823 C.ar    1  UNL1        0.1446
     20 N          64.0081   96.3016   -0.6128 N.ar    1  UNL1       -0.1447
     21 C          59.5842   94.1374   -3.6875 C.3     1  UNL1        0.0488
     22 C          58.4380   93.7871   -4.5895 C.ar    1  UNL1       -0.0189
     23 C          58.1382   94.6397   -5.7868 C.ar    1  UNL1       -0.0041
     24 C          56.9920   94.2894   -6.6888 C.ar    1  UNL1        0.0013
     25 C          56.1457   93.0867   -6.3936 C.ar    1  UNL1        0.0209
     26 C          56.4455   92.2342   -5.1964 C.ar    1  UNL1        0.1026
     27 C          57.5917   92.5844   -4.2944 C.ar    1  UNL1        0.0167
     28 N          55.5992   91.0314   -4.9012 N.ar    1  UNL1       -0.1478
     29 N          55.5504   90.2853   -3.6008 N.ar    1  UNL1       -0.1447
     30 C          54.5742   89.1564   -3.7505 C.ar    1  UNL1        0.1446
     31 C          54.0195   89.2047   -5.1434 C.ar    1  UNL1        0.1446
     32 N          54.6531   90.3636   -5.8546 N.ar    1  UNL1       -0.1447
@<TRIPOS>BOND
     1     2     1    1
     2     2     3    1
     3     3     4    1
     4     4     5    1
     5     5     6    1
     6     6    21    1
     7    21    22    1
     8    22    23   ar
     9    23    24   ar
    10    24    25   ar
    11    25    26   ar
    12    26    28    1
    13    28    29   ar
    14    29    30   ar
    15    30    31   ar
    16    31    32   ar
    17    26    27   ar
    18     6     7    1
    19     7     8   am
    20     8     9    2
    21     8    10    1
    22    10    11   ar
    23    11    12   ar
    24    12    13   ar
    25    13    14   ar
    26    14    15   ar
    27    15    16    1
    28    16    17   ar
    29    17    18   ar
    30    18    19   ar
    31    19    20   ar
    32     7     2    1
    33    15    10   ar
    34    20    16   ar
    35    27    22   ar
    36    32    28   ar
@<TRIPOS>MOLECULE
*****
 32 36 0 0 0
SMALL
GASTEIGER

@<TRIPOS>ATOM
      1 C          59.3142   88.6075   11.3038 C.3     1  UNL1        0.0242
      2 C          60.3276   89.0689   12.3089 C.3     1  UNL1        0.1053
      3 C          59.9199   89.2976   13.7342 C.3     1  UNL1        0.1619
      4 O          60.9332   89.7589   14.7394 O.3     1  UNL1       -0.3502
      5 C          62.3542   89.9915   14.3192 C.3     1  UNL1        0.1622
      6 C          62.7619   89.7628   12.8940 C.3     1  UNL1        0.1095
      7 N          61.7486   89.3015   11.8888 N.am    1  UNL1       -0.2740
      8 C          62.1564   89.0727   10.4635 C.2     1  UNL1        0.2506
      9 O          63.5774   89.3053   10.0434 O.2     1  UNL1       -0.2699
     10 C          61.1430   88.6114    9.4583 C.ar    1  UNL1        0.0729
     11 C          60.3565   89.6169    8.6705 C.ar    1  UNL1        0.0061
     12 C          59.3432   89.1555    7.6654 C.ar    1  UNL1        0.0002
     13 C          59.1164   87.6887    7.4480 C.ar    1  UNL1        0.0016
     14 C          59.9028   86.6834    8.2358 C.ar    1  UNL1        0.0211
     15 C          60.9162   87.1447    9.2410 C.ar    1  UNL1        0.1072
     16 N          61.7026   86.1392   10.0288 N.ar    1  UNL1       -0.1477
     17 N          61.5853   85.8872   11.5028 N.ar    1  UNL1       -0.1447
     18 C          62.5547   84.8015   11.8660 C.ar    1  UNL1        0.1446
     19 C          63.2710   84.3827   10.6163 C.ar    1  UNL1        0.1446
     20 N          62.7444   85.2095    9.4810 N.ar    1  UNL1       -0.1447
     21 C          64.1830   89.9954   12.4738 C.3     1  UNL1        0.0488
     22 C          64.9330   91.1866   12.9922 C.ar    1  UNL1       -0.0189
     23 C          65.3361   91.2490   14.4357 C.ar    1  UNL1       -0.0041
     24 C          66.0860   92.4402   14.9541 C.ar    1  UNL1        0.0013
     25 C          66.4329   93.5689   14.0289 C.ar    1  UNL1        0.0209
     26 C          66.0298   93.5064   12.5855 C.ar    1  UNL1        0.1026
     27 C          65.2798   92.3152   12.0671 C.ar    1  UNL1        0.0167
     28 N          66.3766   94.6351   11.6604 N.ar    1  UNL1       -0.1478
     29 N          67.1292   94.5165   10.3683 N.ar    1  UNL1       -0.1447
     30 C          67.2494   95.8886    9.7743 C.ar    1  UNL1        0.1446
     31 C          66.5712   96.8553   10.6993 C.ar    1  UNL1        0.1446
     32 N          66.0317   96.0805   11.8650 N.ar    1  UNL1       -0.1447
@<TRIPOS>BOND
     1     2     1    1
     2     2     3    1
     3     3     4    1
     4     4     5    1
     5     5     6    1
     6     6    21    1
     7    21    22    1
     8    22    23   ar
     9    23    24   ar
    10    24    25   ar
    11    25    26   ar
    12    26    28    1
    13    28    29   ar
    14    29    30   ar
    15    30    31   ar
    16    31    32   ar
    17    26    27   ar
    18     6     7    1
    19     7     8   am
    20     8     9    2
    21     8    10    1
    22    10    11   ar
    23    11    12   ar
    24    12    13   ar
    25    13    14   ar
    26    14    15   ar
    27    15    16    1
    28    16    17   ar
    29    17    18   ar
    30    18    19   ar
    31    19    20   ar
    32     7     2    1
    33    15    10   ar
    34    20    16   ar
    35    27    22   ar
    36    32    28   ar
@<TRIPOS>MOLECULE
*****
 32 36 0 0 0
SMALL
GASTEIGER

@<TRIPOS>ATOM
      1 C          62.6604   93.6439    0.9246 C.3     1  UNL1        0.0242
      2 C          61.3954   93.3967    0.1574 C.3     1  UNL1        0.1053
      3 C          60.6486   92.1084    0.3374 C.3     1  UNL1        0.1619
      4 O          59.3836   91.8612   -0.4298 O.3     1  UNL1       -0.3502
      5 C          58.8653   92.9024   -1.3770 C.3     1  UNL1        0.1622
      6 C          59.6120   94.1908   -1.5569 C.3     1  UNL1        0.1095
      7 N          60.8770   94.4380   -0.7897 N.am    1  UNL1       -0.2740
      8 C          61.6237   95.7264   -0.9697 C.2     1  UNL1        0.2506
      9 O          61.1054   96.7677   -1.9169 O.2     1  UNL1       -0.2699
     10 C          62.8888   95.9736   -0.2025 C.ar    1  UNL1        0.0729
     11 C          62.8306   96.6088    1.1551 C.ar    1  UNL1        0.0061
     12 C          64.0956   96.8560    1.9223 C.ar    1  UNL1        0.0002
     13 C          65.4189   96.4679    1.3318 C.ar    1  UNL1        0.0016
     14 C          65.4770   95.8328   -0.0258 C.ar    1  UNL1        0.0211
     15 C          64.2120   95.5856   -0.7930 C.ar    1  UNL1        0.1072
     16 N          64.2701   94.9505   -2.1507 N.ar    1  UNL1       -0.1477
     17 N          64.7184   95.6172   -3.4174 N.ar    1  UNL1       -0.1447
     18 C          64.6156   94.6159   -4.5296 C.ar    1  UNL1        0.1446
     19 C          64.1038   93.3304   -3.9501 C.ar    1  UNL1        0.1446
     20 N          63.8904   93.5372   -2.4799 N.ar    1  UNL1       -0.1447
     21 C          59.0937   95.2321   -2.5041 C.3     1  UNL1        0.0488
     22 C          57.9326   94.9190   -3.4007 C.ar    1  UNL1       -0.0189
     23 C          58.1399   94.0928   -4.6355 C.ar    1  UNL1       -0.0041
     24 C          56.9788   93.7797   -5.5320 C.ar    1  UNL1        0.0013
     25 C          55.6104   94.2928   -5.1938 C.ar    1  UNL1        0.0209
     26 C          55.4031   95.1189   -3.9592 C.ar    1  UNL1        0.1026
     27 C          56.5642   95.4320   -3.0626 C.ar    1  UNL1        0.0167
     28 N          54.0347   95.6320   -3.6210 N.ar    1  UNL1       -0.1478
     29 N          53.0025   96.1034   -4.6019 N.ar    1  UNL1       -0.1447
     30 C          51.7882   96.5265   -3.8297 C.ar    1  UNL1        0.1446
     31 C          52.0699   96.3165   -2.3713 C.ar    1  UNL1        0.1446
     32 N          53.4584   95.7636   -2.2424 N.ar    1  UNL1       -0.1447
@<TRIPOS>BOND
     1     2     1    1
     2     2     3    1
     3     3     4    1
     4     4     5    1
     5     5     6    1
     6     6    21    1
     7    21    22    1
     8    22    23   ar
     9    23    24   ar
    10    24    25   ar
    11    25    26   ar
    12    26    28    1
    13    28    29   ar
    14    29    30   ar
    15    30    31   ar
    16    31    32   ar
    17    26    27   ar
    18     6     7    1
    19     7     8   am
    20     8     9    2
    21     8    10    1
    22    10    11   ar
    23    11    12   ar
    24    12    13   ar
    25    13    14   ar
    26    14    15   ar
    27    15    16    1
    28    16    17   ar
    29    17    18   ar
    30    18    19   ar
    31    19    20   ar
    32     7     2    1
    33    15    10   ar
    34    20    16   ar
    35    27    22   ar
    36    32    28   ar
