@<TRIPOS>MOLECULE
*****
 30 31 0 0 0
SMALL
GASTEIGER

@<TRIPOS>ATOM
      1 C          65.1101   92.0956   12.6301 C.ar    1  UNL1        0.1425
      2 C          63.9487   91.2342   12.2313 C.ar    1  UNL1        0.0368
      3 C          63.5747   90.0457   13.0666 C.ar    1  UNL1        0.0031
      4 C          64.3621   89.7186   14.3006 C.ar    1  UNL1        0.0002
      5 C          65.5236   90.5800   14.6994 C.ar    1  UNL1        0.0069
      6 C          65.8975   91.7685   13.8642 C.ar    1  UNL1        0.1053
      7 C          63.9882   88.5301   15.1358 C.ar    1  UNL1        0.0029
      8 C          63.2606   88.7241   16.4331 C.ar    1  UNL1        0.0207
      9 C          62.8866   87.5356   17.2683 C.ar    1  UNL1        0.0987
     10 N          63.2402   86.1531   16.8063 N.ar    1  UNL1       -0.2426
     11 C          63.9678   85.9590   15.5090 C.ar    1  UNL1        0.1249
     12 C          64.3418   87.1476   14.6738 C.ar    1  UNL1        0.0203
     13 C          64.3214   84.5765   15.0469 C.3     1  UNL1        0.3581
     14 F          63.4194   83.4231   15.3728 F       1  UNL1       -0.1915
     15 F          65.5770   84.3473   14.2589 F       1  UNL1       -0.1915
     16 C          67.0590   92.6299   14.2631 C.3     1  UNL1        0.4214
     17 F          68.2204   93.4913   14.6619 F       1  UNL1       -0.1657
     18 F          66.2509   93.1964   15.3926 F       1  UNL1       -0.1657
     19 F          67.8671   92.0634   13.1335 F       1  UNL1       -0.1657
     20 O          65.4841   93.2841   11.7949 O.3     1  UNL1       -0.4741
     21 C          65.9693   93.0899   10.3890 C.3     1  UNL1        0.2192
     22 C          67.3648   93.4933   10.0147 C.3     1  UNL1        0.0798
     23 C          67.6727   92.0754    9.6344 C.3     1  UNL1        0.0193
     24 N          68.7602   93.8968    9.6405 N.3     1  UNL1       -0.3203
     25 H          69.3972   93.6645   10.4025 H       1  UNL1        0.1189
     26 H          68.7888   94.9016    9.4678 H       1  UNL1        0.1189
     27 C          67.0569   94.9113   10.3951 C.3     1  UNL1        0.0179
     28 C          65.1015   96.5561    9.9252 C.3     1  UNL1        0.0000
     29 C          66.3024   95.7953    9.4468 C.3     1  UNL1        0.0014
     30 C          66.7489   95.9184    8.0200 C.3     1  UNL1        0.0000
@<TRIPOS>BOND
     1    28    29    1
     2    29    30    1
     3    29    27    1
     4    27    22    1
     5    22    23    1
     6    22    24    1
     7    22    21    1
     8    21    20    1
     9    20     1    1
    10     1     2   ar
    11     2     3   ar
    12     3     4   ar
    13     4     7    1
    14     7     8   ar
    15     8     9   ar
    16     9    10   ar
    17    10    11   ar
    18    11    13    1
    19    13    14    1
    20    13    15    1
    21    11    12   ar
    22     4     5   ar
    23     5     6   ar
    24     6    16    1
    25    16    17    1
    26    16    18    1
    27    16    19    1
    28     6     1   ar
    29    12     7   ar
    30    24    25    1
    31    24    26    1
@<TRIPOS>MOLECULE
*****
 30 31 0 0 0
SMALL
GASTEIGER

@<TRIPOS>ATOM
      1 C          63.8660   91.0023   12.4656 C.ar    1  UNL1        0.1425
      2 C          63.5616   91.3830   11.0471 C.ar    1  UNL1        0.0368
      3 C          62.8535   90.4150   10.1462 C.ar    1  UNL1        0.0031
      4 C          62.4498   89.0663   10.6638 C.ar    1  UNL1        0.0002
      5 C          62.7542   88.6857   12.0824 C.ar    1  UNL1        0.0069
      6 C          63.4622   89.6536   12.9833 C.ar    1  UNL1        0.1053
      7 C          61.7417   88.0984    9.7629 C.ar    1  UNL1        0.0029
      8 C          60.2823   88.2788    9.4674 C.ar    1  UNL1        0.0207
      9 C          59.5742   87.3108    8.5665 C.ar    1  UNL1        0.0987
     10 N          60.3256   86.1624    7.9611 N.ar    1  UNL1       -0.2426
     11 C          61.7850   85.9820    8.2566 C.ar    1  UNL1        0.1249
     12 C          62.4931   86.9500    9.1575 C.ar    1  UNL1        0.0203
     13 C          62.5365   84.8335    7.6512 C.3     1  UNL1        0.3581
     14 F          63.4908   84.0362    8.4900 F       1  UNL1       -0.1915
     15 F          62.3337   84.4825    6.2071 F       1  UNL1       -0.1915
     16 C          63.7666   89.2729   14.4019 C.3     1  UNL1        0.4214
     17 F          64.0709   88.8922   15.8205 F       1  UNL1       -0.1657
     18 F          63.0335   90.4889   14.8855 F       1  UNL1       -0.1657
     19 F          64.4997   88.0569   13.9184 F       1  UNL1       -0.1657
     20 O          64.5740   91.9703   13.3665 O.3     1  UNL1       -0.4741
     21 C          65.7302   92.7715   12.8457 C.3     1  UNL1        0.2192
     22 C          67.1132   92.1910   12.8629 C.3     1  UNL1        0.0798
     23 C          67.3480   92.7094   11.4750 C.3     1  UNL1        0.0193
     24 N          68.4962   91.6105   12.8800 N.3     1  UNL1       -0.3203
     25 H          68.4984   90.7222   12.3787 H       1  UNL1        0.1189
     26 H          68.7886   91.4570   13.8450 H       1  UNL1        0.1189
     27 C          66.8784   91.6725   14.2507 C.3     1  UNL1        0.0179
     28 C          65.8947   92.5844   16.4757 C.3     1  UNL1        0.0000
     29 C          66.9637   92.6036   15.4236 C.3     1  UNL1        0.0014
     30 C          68.1179   93.5541   15.5444 C.3     1  UNL1        0.0000
@<TRIPOS>BOND
     1    28    29    1
     2    29    30    1
     3    29    27    1
     4    27    22    1
     5    22    23    1
     6    22    24    1
     7    22    21    1
     8    21    20    1
     9    20     1    1
    10     1     2   ar
    11     2     3   ar
    12     3     4   ar
    13     4     7    1
    14     7     8   ar
    15     8     9   ar
    16     9    10   ar
    17    10    11   ar
    18    11    13    1
    19    13    14    1
    20    13    15    1
    21    11    12   ar
    22     4     5   ar
    23     5     6   ar
    24     6    16    1
    25    16    17    1
    26    16    18    1
    27    16    19    1
    28     6     1   ar
    29    12     7   ar
    30    24    25    1
    31    24    26    1
@<TRIPOS>MOLECULE
*****
 30 31 0 0 0
SMALL
GASTEIGER

@<TRIPOS>ATOM
      1 C          63.8342   91.1045   12.1950 C.ar    1  UNL1        0.1425
      2 C          63.5021   91.4152   10.7656 C.ar    1  UNL1        0.0368
      3 C          62.7750   90.4054    9.9280 C.ar    1  UNL1        0.0031
      4 C          62.3800   89.0849   10.5197 C.ar    1  UNL1        0.0002
      5 C          62.7121   88.7742   11.9490 C.ar    1  UNL1        0.0069
      6 C          63.4392   89.7840   12.7867 C.ar    1  UNL1        0.1053
      7 C          61.6529   88.0751    9.6820 C.ar    1  UNL1        0.0029
      8 C          60.1715   88.1953    9.4799 C.ar    1  UNL1        0.0207
      9 C          59.4444   87.1855    8.6423 C.ar    1  UNL1        0.0987
     10 N          60.1988   86.0555    8.0067 N.ar    1  UNL1       -0.2426
     11 C          61.6802   85.9353    8.2088 C.ar    1  UNL1        0.1249
     12 C          62.4073   86.9451    9.0465 C.ar    1  UNL1        0.0203
     13 C          62.4346   84.8052    7.5733 C.3     1  UNL1        0.3581
     14 F          63.4522   84.0419    8.3682 F       1  UNL1       -0.1915
     15 F          62.1715   84.4385    6.1428 F       1  UNL1       -0.1915
     16 C          63.7713   89.4732   14.2161 C.3     1  UNL1        0.4214
     17 F          64.1034   89.1624   15.6455 F       1  UNL1       -0.1657
     18 F          64.4723   88.2205   13.7809 F       1  UNL1       -0.1657
     19 F          63.0703   90.7258   14.6514 F       1  UNL1       -0.1657
     20 O          64.5612   92.1143   13.0326 O.3     1  UNL1       -0.4741
     21 C          65.6361   92.9625   12.4202 C.3     1  UNL1        0.2192
     22 C          67.0382   92.4393   12.3194 C.3     1  UNL1        0.0798
     23 C          67.2175   92.6355   13.7957 C.3     1  UNL1        0.0193
     24 N          68.4404   91.9161   12.2186 N.3     1  UNL1       -0.3203
     25 H          69.0944   92.6986   12.1949 H       1  UNL1        0.1189
     26 H          68.5375   91.3659   11.3653 H       1  UNL1        0.1189
     27 C          66.8590   92.2432   10.8431 C.3     1  UNL1        0.0179
     28 C          68.6176   92.4844    8.9460 C.3     1  UNL1        0.0000
     29 C          67.6156   93.1034    9.8749 C.3     1  UNL1        0.0014
     30 C          67.3703   94.5828    9.8355 C.3     1  UNL1        0.0000
@<TRIPOS>BOND
     1    28    29    1
     2    29    30    1
     3    29    27    1
     4    27    22    1
     5    22    23    1
     6    22    24    1
     7    22    21    1
     8    21    20    1
     9    20     1    1
    10     1     2   ar
    11     2     3   ar
    12     3     4   ar
    13     4     7    1
    14     7     8   ar
    15     8     9   ar
    16     9    10   ar
    17    10    11   ar
    18    11    13    1
    19    13    14    1
    20    13    15    1
    21    11    12   ar
    22     4     5   ar
    23     5     6   ar
    24     6    16    1
    25    16    17    1
    26    16    18    1
    27    16    19    1
    28     6     1   ar
    29    12     7   ar
    30    24    25    1
    31    24    26    1
@<TRIPOS>MOLECULE
*****
 30 31 0 0 0
SMALL
GASTEIGER

@<TRIPOS>ATOM
      1 C          65.4352   92.4240   13.2069 C.ar    1  UNL1        0.1425
      2 C          64.4100   91.5542   12.5418 C.ar    1  UNL1        0.0368
      3 C          63.9573   90.2873   13.2051 C.ar    1  UNL1        0.0031
      4 C          64.5297   89.8902   14.5335 C.ar    1  UNL1        0.0002
      5 C          65.5548   90.7601   15.1986 C.ar    1  UNL1        0.0069
      6 C          66.0076   92.0270   14.5353 C.ar    1  UNL1        0.1053
      7 C          64.0769   88.6233   15.1968 C.ar    1  UNL1        0.0029
      8 C          63.2949   88.6842   16.4754 C.ar    1  UNL1        0.0207
      9 C          62.8422   87.4173   17.1387 C.ar    1  UNL1        0.0987
     10 N          63.1713   86.0895   16.5234 N.ar    1  UNL1       -0.2426
     11 C          63.9533   86.0287   15.2448 C.ar    1  UNL1        0.1249
     12 C          64.4061   87.2956   14.5815 C.ar    1  UNL1        0.0203
     13 C          64.2825   84.7008   14.6295 C.3     1  UNL1        0.3581
     14 F          64.4854   84.5908   13.1474 F       1  UNL1       -0.1915
     15 F          64.4088   83.4832   15.4963 F       1  UNL1       -0.1915
     16 C          67.0328   92.8968   15.2005 C.3     1  UNL1        0.4214
     17 F          68.0579   93.7666   15.8656 F       1  UNL1       -0.1657
     18 F          66.1292   93.0542   16.3873 F       1  UNL1       -0.1657
     19 F          67.9364   92.7395   14.0136 F       1  UNL1       -0.1657
     20 O          65.8880   93.6909   12.5436 O.3     1  UNL1       -0.4741
     21 C          65.6355   93.9030   11.0803 C.3     1  UNL1        0.2192
     22 C          66.6782   94.5625   10.2272 C.3     1  UNL1        0.0798
     23 C          66.5010   95.8380   10.9965 C.3     1  UNL1        0.0193
     24 N          67.7209   95.2220    9.3741 N.3     1  UNL1       -0.3203
     25 H          67.2660   95.7795    8.6512 H       1  UNL1        0.1189
     26 H          68.3036   94.5082    8.9366 H       1  UNL1        0.1189
     27 C          66.8555   93.2870    9.4579 C.3     1  UNL1        0.0179
     28 C          69.0052   92.1647    8.5257 C.3     1  UNL1        0.0000
     29 C          68.0791   92.4462    9.6716 C.3     1  UNL1        0.0014
     30 C          68.3766   91.8867   11.0313 C.3     1  UNL1        0.0000
@<TRIPOS>BOND
     1    28    29    1
     2    29    30    1
     3    29    27    1
     4    27    22    1
     5    22    23    1
     6    22    24    1
     7    22    21    1
     8    21    20    1
     9    20     1    1
    10     1     2   ar
    11     2     3   ar
    12     3     4   ar
    13     4     7    1
    14     7     8   ar
    15     8     9   ar
    16     9    10   ar
    17    10    11   ar
    18    11    13    1
    19    13    14    1
    20    13    15    1
    21    11    12   ar
    22     4     5   ar
    23     5     6   ar
    24     6    16    1
    25    16    17    1
    26    16    18    1
    27    16    19    1
    28     6     1   ar
    29    12     7   ar
    30    24    25    1
    31    24    26    1
@<TRIPOS>MOLECULE
*****
 30 31 0 0 0
SMALL
GASTEIGER

@<TRIPOS>ATOM
      1 C          63.2503   86.0676   12.8183 C.ar    1  UNL1        0.1425
      2 C          62.9957   87.3748   12.1281 C.ar    1  UNL1        0.0368
      3 C          63.4202   88.6597   12.7752 C.ar    1  UNL1        0.0031
      4 C          64.0992   88.6375   14.1124 C.ar    1  UNL1        0.0002
      5 C          64.3539   87.3303   14.8026 C.ar    1  UNL1        0.0069
      6 C          63.9294   86.0454   14.1555 C.ar    1  UNL1        0.1053
      7 C          64.5237   89.9225   14.7595 C.ar    1  UNL1        0.0029
      8 C          63.7004   90.5129   15.8656 C.ar    1  UNL1        0.0207
      9 C          64.1249   91.7979   16.5127 C.ar    1  UNL1        0.0987
     10 N          65.3726   92.4924   16.0536 N.ar    1  UNL1       -0.2426
     11 C          66.1959   91.9019   14.9476 C.ar    1  UNL1        0.1249
     12 C          65.7715   90.6170   14.3005 C.ar    1  UNL1        0.0203
     13 C          67.4437   92.5964   14.4885 C.3     1  UNL1        0.3581
     14 F          68.2579   92.0147   13.3710 F       1  UNL1       -0.1915
     15 F          67.8773   93.8725   15.1469 F       1  UNL1       -0.1915
     16 C          64.1840   84.7381   14.8458 C.3     1  UNL1        0.4214
     17 F          64.4387   83.4310   15.5360 F       1  UNL1       -0.1657
     18 F          65.6099   84.7707   14.3814 F       1  UNL1       -0.1657
     19 F          62.7582   84.7055   15.3102 F       1  UNL1       -0.1657
     20 O          62.8259   84.7826   12.1712 O.3     1  UNL1       -0.4741
     21 C          63.8585   83.8354   11.6362 C.3     1  UNL1        0.2192
     22 C          63.4503   82.4748   11.1543 C.3     1  UNL1        0.0798
     23 C          64.5308   82.5188   10.1148 C.3     1  UNL1        0.0193
     24 N          63.0421   81.1143   10.6724 N.3     1  UNL1       -0.3203
     25 H          62.4574   81.2090    9.8420 H       1  UNL1        0.1189
     26 H          62.5169   80.6374   11.4053 H       1  UNL1        0.1189
     27 C          62.3698   82.4309   12.1938 C.3     1  UNL1        0.0179
     28 C          63.7845   80.8978   13.7424 C.3     1  UNL1        0.0000
     29 C          62.4528   81.4444   13.3206 C.3     1  UNL1        0.0014
     30 C          61.2041   81.0044   14.0259 C.3     1  UNL1        0.0000
@<TRIPOS>BOND
     1    28    29    1
     2    29    30    1
     3    29    27    1
     4    27    22    1
     5    22    23    1
     6    22    24    1
     7    22    21    1
     8    21    20    1
     9    20     1    1
    10     1     2   ar
    11     2     3   ar
    12     3     4   ar
    13     4     7    1
    14     7     8   ar
    15     8     9   ar
    16     9    10   ar
    17    10    11   ar
    18    11    13    1
    19    13    14    1
    20    13    15    1
    21    11    12   ar
    22     4     5   ar
    23     5     6   ar
    24     6    16    1
    25    16    17    1
    26    16    18    1
    27    16    19    1
    28     6     1   ar
    29    12     7   ar
    30    24    25    1
    31    24    26    1
@<TRIPOS>MOLECULE
*****
 30 31 0 0 0
SMALL
GASTEIGER

@<TRIPOS>ATOM
      1 C          62.9916   87.0062   12.2154 C.ar    1  UNL1        0.1425
      2 C          63.7795   86.7154   13.4582 C.ar    1  UNL1        0.0368
      3 C          64.2945   87.8442   14.3011 C.ar    1  UNL1        0.0031
      4 C          64.0217   89.2639   13.9012 C.ar    1  UNL1        0.0002
      5 C          63.2338   89.5548   12.6584 C.ar    1  UNL1        0.0069
      6 C          62.7187   88.4259   11.8155 C.ar    1  UNL1        0.1053
      7 C          64.5367   90.3928   14.7441 C.ar    1  UNL1        0.0029
      8 C          63.7291   90.8901   15.9062 C.ar    1  UNL1        0.0207
      9 C          64.2441   92.0189   16.7491 C.ar    1  UNL1        0.0987
     10 N          65.5667   92.6505   16.4299 N.ar    1  UNL1       -0.2426
     11 C          66.3742   92.1532   15.2678 C.ar    1  UNL1        0.1249
     12 C          65.8592   91.0243   14.4249 C.ar    1  UNL1        0.0203
     13 C          67.6969   92.7847   14.9485 C.3     1  UNL1        0.3581
     14 F          68.1152   94.0437   15.6484 F       1  UNL1       -0.1915
     15 F          68.6011   92.1572   13.9294 F       1  UNL1       -0.1915
     16 C          61.9308   88.7168   10.5727 C.3     1  UNL1        0.4214
     17 F          61.1430   89.0078    9.3298 F       1  UNL1       -0.1657
     18 F          63.1455   89.3365    9.9477 F       1  UNL1       -0.1657
     19 F          60.7162   88.0971   11.1976 F       1  UNL1       -0.1657
     20 O          62.4766   85.8774   11.3725 O.3     1  UNL1       -0.4741
     21 C          62.6302   84.4608   11.8412 C.3     1  UNL1        0.2192
     22 C          63.7596   83.6187   11.3261 C.3     1  UNL1        0.0798
     23 C          63.5069   84.1286    9.9383 C.3     1  UNL1        0.0193
     24 N          64.8890   82.7766   10.8110 N.3     1  UNL1       -0.3203
     25 H          64.5150   81.9233   10.3958 H       1  UNL1        0.1189
     26 H          65.5119   82.5350   11.5818 H       1  UNL1        0.1189
     27 C          64.0123   83.1088   12.7139 C.3     1  UNL1        0.0179
     28 C          62.3932   82.6658   14.6969 C.3     1  UNL1        0.0000
     29 C          62.9944   82.2393   13.3905 C.3     1  UNL1        0.0014
     30 C          62.5775   80.9433   12.7606 C.3     1  UNL1        0.0000
@<TRIPOS>BOND
     1    28    29    1
     2    29    30    1
     3    29    27    1
     4    27    22    1
     5    22    23    1
     6    22    24    1
     7    22    21    1
     8    21    20    1
     9    20     1    1
    10     1     2   ar
    11     2     3   ar
    12     3     4   ar
    13     4     7    1
    14     7     8   ar
    15     8     9   ar
    16     9    10   ar
    17    10    11   ar
    18    11    13    1
    19    13    14    1
    20    13    15    1
    21    11    12   ar
    22     4     5   ar
    23     5     6   ar
    24     6    16    1
    25    16    17    1
    26    16    18    1
    27    16    19    1
    28     6     1   ar
    29    12     7   ar
    30    24    25    1
    31    24    26    1
@<TRIPOS>MOLECULE
*****
 30 31 0 0 0
SMALL
GASTEIGER

@<TRIPOS>ATOM
      1 C          63.7753   89.8176   13.2989 C.ar    1  UNL1        0.1425
      2 C          64.4777   89.0513   14.3802 C.ar    1  UNL1        0.0368
      3 C          64.3814   87.5550   14.4228 C.ar    1  UNL1        0.0031
      4 C          63.5827   86.8250   13.3841 C.ar    1  UNL1        0.0002
      5 C          62.8802   87.5913   12.3027 C.ar    1  UNL1        0.0069
      6 C          62.9766   89.0876   12.2601 C.ar    1  UNL1        0.1053
      7 C          63.4863   85.3287   13.4267 C.ar    1  UNL1        0.0029
      8 C          63.2576   84.6288   14.7334 C.ar    1  UNL1        0.0207
      9 C          63.1613   83.1325   14.7760 C.ar    1  UNL1        0.0987
     10 N          63.2936   82.3361   13.5118 N.ar    1  UNL1       -0.2426
     11 C          63.5223   83.0361   12.2050 C.ar    1  UNL1        0.1249
     12 C          63.6187   84.5324   12.1625 C.ar    1  UNL1        0.0203
     13 C          63.6547   82.2397   10.9407 C.3     1  UNL1        0.3581
     14 F          62.9428   80.9266   10.8035 F       1  UNL1       -0.1915
     15 F          64.4990   82.7565    9.8138 F       1  UNL1       -0.1915
     16 C          62.2741   89.8539   11.1787 C.3     1  UNL1        0.4214
     17 F          61.5716   90.6202   10.0974 F       1  UNL1       -0.1657
     18 F          61.0640   89.9820   12.0556 F       1  UNL1       -0.1657
     19 F          63.4843   89.7259   10.3018 F       1  UNL1       -0.1657
     20 O          63.8717   91.3139   13.2563 O.3     1  UNL1       -0.4741
     21 C          65.1258   91.9980   13.7135 C.3     1  UNL1        0.2192
     22 C          65.8288   92.9616   12.8039 C.3     1  UNL1        0.0798
     23 C          65.1182   92.3667   11.6245 C.3     1  UNL1        0.0193
     24 N          66.5317   93.9252   11.8944 N.3     1  UNL1       -0.3203
     25 H          67.3241   93.4592   11.4523 H       1  UNL1        0.1189
     26 H          66.8653   94.7225   12.4361 H       1  UNL1        0.1189
     27 C          66.5394   93.5566   13.9834 C.3     1  UNL1        0.0179
     28 C          67.6308   92.8040   16.2177 C.3     1  UNL1        0.0000
     29 C          67.5715   92.7550   14.7197 C.3     1  UNL1        0.0014
     30 C          68.5443   91.9044   13.9580 C.3     1  UNL1        0.0000
@<TRIPOS>BOND
     1    28    29    1
     2    29    30    1
     3    29    27    1
     4    27    22    1
     5    22    23    1
     6    22    24    1
     7    22    21    1
     8    21    20    1
     9    20     1    1
    10     1     2   ar
    11     2     3   ar
    12     3     4   ar
    13     4     7    1
    14     7     8   ar
    15     8     9   ar
    16     9    10   ar
    17    10    11   ar
    18    11    13    1
    19    13    14    1
    20    13    15    1
    21    11    12   ar
    22     4     5   ar
    23     5     6   ar
    24     6    16    1
    25    16    17    1
    26    16    18    1
    27    16    19    1
    28     6     1   ar
    29    12     7   ar
    30    24    25    1
    31    24    26    1
@<TRIPOS>MOLECULE
*****
 30 31 0 0 0
SMALL
GASTEIGER

@<TRIPOS>ATOM
      1 C          63.9365   90.4262   13.2971 C.ar    1  UNL1        0.1425
      2 C          64.6193   89.7702   14.4604 C.ar    1  UNL1        0.0368
      3 C          64.5712   88.2789   14.6147 C.ar    1  UNL1        0.0031
      4 C          63.8402   87.4437   13.6058 C.ar    1  UNL1        0.0002
      5 C          63.1574   88.0997   12.4425 C.ar    1  UNL1        0.0069
      6 C          63.2055   89.5910   12.2881 C.ar    1  UNL1        0.1053
      7 C          63.7920   85.9524   13.7602 C.ar    1  UNL1        0.0029
      8 C          64.0659   85.3275   15.0960 C.ar    1  UNL1        0.0207
      9 C          64.0178   83.8362   15.2503 C.ar    1  UNL1        0.0987
     10 N          63.6957   82.9699   14.0689 N.ar    1  UNL1       -0.2426
     11 C          63.4219   83.5949   12.7332 C.ar    1  UNL1        0.1249
     12 C          63.4700   85.0861   12.5788 C.ar    1  UNL1        0.0203
     13 C          63.0998   82.7286   11.5516 C.3     1  UNL1        0.3581
     14 F          63.5521   83.1328   10.1798 F       1  UNL1       -0.1915
     15 F          62.3255   81.4581   11.7420 F       1  UNL1       -0.1915
     16 C          62.5226   90.2470   11.1248 C.3     1  UNL1        0.4214
     17 F          61.8398   90.9030    9.9614 F       1  UNL1       -0.1657
     18 F          63.8138   90.2372   10.3614 F       1  UNL1       -0.1657
     19 F          61.2315   90.2567   11.8881 F       1  UNL1       -0.1657
     20 O          63.9847   91.9175   13.1427 O.3     1  UNL1       -0.4741
     21 C          64.9694   92.5424   12.1994 C.3     1  UNL1        0.2192
     22 C          66.4403   92.4411   12.4752 C.3     1  UNL1        0.0798
     23 C          66.2062   92.8870   13.8881 C.3     1  UNL1        0.0193
     24 N          67.9113   92.3397   12.7509 N.3     1  UNL1       -0.3203
     25 H          68.3324   93.2670   12.6948 H       1  UNL1        0.1189
     26 H          68.3452   91.7269   12.0605 H       1  UNL1        0.1189
     27 C          66.6744   91.9952   11.0623 C.3     1  UNL1        0.0179
     28 C          68.5358   92.3555    9.2859 C.3     1  UNL1        0.0000
     29 C          67.3982   92.8926   10.1027 C.3     1  UNL1        0.0014
     30 C          66.9842   94.3274    9.9600 C.3     1  UNL1        0.0000
@<TRIPOS>BOND
     1    28    29    1
     2    29    30    1
     3    29    27    1
     4    27    22    1
     5    22    23    1
     6    22    24    1
     7    22    21    1
     8    21    20    1
     9    20     1    1
    10     1     2   ar
    11     2     3   ar
    12     3     4   ar
    13     4     7    1
    14     7     8   ar
    15     8     9   ar
    16     9    10   ar
    17    10    11   ar
    18    11    13    1
    19    13    14    1
    20    13    15    1
    21    11    12   ar
    22     4     5   ar
    23     5     6   ar
    24     6    16    1
    25    16    17    1
    26    16    18    1
    27    16    19    1
    28     6     1   ar
    29    12     7   ar
    30    24    25    1
    31    24    26    1
@<TRIPOS>MOLECULE
*****
 30 31 0 0 0
SMALL
GASTEIGER

@<TRIPOS>ATOM
      1 C          63.2274   88.4065   12.7733 C.ar    1  UNL1        0.1425
      2 C          63.9295   87.4488   13.6896 C.ar    1  UNL1        0.0368
      3 C          63.8899   85.9759   13.4083 C.ar    1  UNL1        0.0031
      4 C          63.1481   85.4608   12.2107 C.ar    1  UNL1        0.0002
      5 C          62.4460   86.4185   11.2944 C.ar    1  UNL1        0.0069
      6 C          62.4856   87.8913   11.5757 C.ar    1  UNL1        0.1053
      7 C          63.1085   83.9879   11.9294 C.ar    1  UNL1        0.0029
      8 C          63.7056   83.4499   10.6629 C.ar    1  UNL1        0.0207
      9 C          63.6660   81.9771   10.3816 C.ar    1  UNL1        0.0987
     10 N          63.0293   81.0422   11.3667 N.ar    1  UNL1       -0.2426
     11 C          62.4321   81.5802   12.6332 C.ar    1  UNL1        0.1249
     12 C          62.4718   83.0531   12.9145 C.ar    1  UNL1        0.0203
     13 C          61.7953   80.6454   13.6184 C.3     1  UNL1        0.3581
     14 F          60.6627   81.1207   14.4793 F       1  UNL1       -0.1915
     15 F          62.2912   79.2352   13.7427 F       1  UNL1       -0.1915
     16 C          61.7834   88.8491   10.6593 C.3     1  UNL1        0.4214
     17 F          61.0812   89.8068    9.7429 F       1  UNL1       -0.1657
     18 F          62.9563   88.8150    9.7250 F       1  UNL1       -0.1657
     19 F          60.6104   88.8831   11.5936 F       1  UNL1       -0.1657
     20 O          63.2670   89.8793   13.0546 O.3     1  UNL1       -0.4741
     21 C          64.4697   90.4845   13.7159 C.3     1  UNL1        0.2192
     22 C          64.9679   91.8303   13.2794 C.3     1  UNL1        0.0798
     23 C          64.3226   91.6347   11.9395 C.3     1  UNL1        0.0193
     24 N          65.4661   93.1762   12.8429 N.3     1  UNL1       -0.3203
     25 H          66.3078   93.0605   12.2786 H       1  UNL1        0.1189
     26 H          65.6823   93.7414   13.6640 H       1  UNL1        0.1189
     27 C          65.6132   92.0260   14.6193 C.3     1  UNL1        0.0179
     28 C          68.0292   91.7517   13.7040 C.3     1  UNL1        0.0000
     29 C          67.0787   92.3331   14.7083 C.3     1  UNL1        0.0014
     30 C          67.5938   93.2217   15.8016 C.3     1  UNL1        0.0000
@<TRIPOS>BOND
     1    28    29    1
     2    29    30    1
     3    29    27    1
     4    27    22    1
     5    22    23    1
     6    22    24    1
     7    22    21    1
     8    21    20    1
     9    20     1    1
    10     1     2   ar
    11     2     3   ar
    12     3     4   ar
    13     4     7    1
    14     7     8   ar
    15     8     9   ar
    16     9    10   ar
    17    10    11   ar
    18    11    13    1
    19    13    14    1
    20    13    15    1
    21    11    12   ar
    22     4     5   ar
    23     5     6   ar
    24     6    16    1
    25    16    17    1
    26    16    18    1
    27    16    19    1
    28     6     1   ar
    29    12     7   ar
    30    24    25    1
    31    24    26    1
