@<TRIPOS>MOLECULE
*****
 41 45 0 0 0
SMALL
GASTEIGER

@<TRIPOS>ATOM
      1 C          63.3306   87.0932   12.9634 C.2     1  UNL1        0.2411
      2 O          64.0994   86.6446   14.1707 O.2     1  UNL1       -0.2733
      3 N          63.2406   88.5532   12.6312 N.am    1  UNL1       -0.2966
      4 H          62.7360   88.8475   11.8388 H       1  UNL1        0.1499
      5 C          62.6517   86.0817   12.0881 C.3     1  UNL1        0.1554
      6 C          61.1250   86.8249   10.1216 C.2     1  UNL1        0.4017
      7 O          62.3336   87.0074    9.2522 O.2     1  UNL1       -0.2264
      8 N          61.2841   86.3620   11.5396 N.am    1  UNL1       -0.2637
      9 H          60.4908   86.2421   12.1102 H       1  UNL1        0.1532
     10 O          59.7573   87.1052    9.5731 O.3     1  UNL1       -0.4419
     11 C          60.0854   89.1636    9.1796 C.3     1  UNL1        0.0437
     12 C          59.5972   87.9948    8.3762 C.3     1  UNL1        0.1378
     13 C          59.1090   86.8260    7.5727 C.3     1  UNL1        0.0437
     14 C          59.4371   88.8846    7.1791 C.3     1  UNL1        0.0437
     15 C          63.3406   84.7899   11.7613 C.3     1  UNL1        0.0554
     16 C          62.9586   83.5324   12.4844 C.ar    1  UNL1       -0.0192
     17 C          62.5280   83.5939   13.9199 C.ar    1  UNL1       -0.0041
     18 C          62.1460   82.3365   14.6429 C.ar    1  UNL1        0.0005
     19 C          62.1946   81.0174   13.9304 C.ar    1  UNL1        0.0114
     20 C          62.6251   80.9558   12.4948 C.ar    1  UNL1        0.0574
     21 CL         62.6737   79.6367   11.7823 Cl      1  UNL1       -0.0823
     22 C          63.0071   82.2133   11.7718 C.ar    1  UNL1        0.0072
     23 C          63.9194   89.5646   13.5065 C.3     1  UNL1        0.1543
     24 C          64.4454   90.8377   12.9127 C.ar    1  UNL1        0.1417
     25 N          64.3961   91.2209   11.4633 N.ar    1  UNL1       -0.2276
     26 C          65.0332   92.5712   11.3188 C.ar    1  UNL1        0.1167
     27 C          65.2671   93.4480   10.1245 C.ar    1  UNL1        0.0238
     28 C          65.9441   94.7762   10.2903 C.ar    1  UNL1        0.0223
     29 C          66.3872   95.2276   11.6504 C.ar    1  UNL1        0.1006
     30 N          66.1532   94.3507   12.8447 N.ar    1  UNL1       -0.2252
     31 C          65.4762   93.0226   12.6789 C.ar    1  UNL1        0.1626
     32 N          65.1129   91.9512   13.6640 N.ar    1  UNL1       -0.2990
     33 C          65.3718   91.9871   15.1410 C.3     1  UNL1        0.0898
     34 C          65.1214   91.9128   16.6181 C.3     1  UNL1        0.0273
     35 C          63.9956   91.6821   15.6542 C.3     1  UNL1        0.0273
     36 C          66.8378   92.3046   15.1410 C.ar    1  UNL1       -0.0037
     37 C          67.3763   93.3610   16.0596 C.ar    1  UNL1       -0.0025
     38 C          68.8424   93.6785   16.0596 C.ar    1  UNL1       -0.0003
     39 C          69.7697   92.9396   15.1408 C.ar    1  UNL1       -0.0000
     40 C          69.2311   91.8832   14.2221 C.ar    1  UNL1       -0.0003
     41 C          67.7651   91.5657   14.2222 C.ar    1  UNL1       -0.0025
@<TRIPOS>BOND
     1    11    12    1
     2    12    13    1
     3    12    14    1
     4    12    10    1
     5    10     6    1
     6     6     7    2
     7     6     8   am
     8     8     5    1
     9     5    15    1
    10    15    16    1
    11    16    17   ar
    12    17    18   ar
    13    18    19   ar
    14    19    20   ar
    15    20    21    1
    16    20    22   ar
    17     5     1    1
    18     1     2    2
    19     1     3   am
    20     3    23    1
    21    23    24    1
    22    24    25   ar
    23    25    26   ar
    24    26    27   ar
    25    27    28   ar
    26    28    29   ar
    27    29    30   ar
    28    30    31   ar
    29    31    32   ar
    30    32    33    1
    31    33    36    1
    32    36    37   ar
    33    37    38   ar
    34    38    39   ar
    35    39    40   ar
    36    40    41   ar
    37    33    34    1
    38    34    35    1
    39    22    16   ar
    40    32    24   ar
    41    35    33    1
    42    31    26   ar
    43    41    36   ar
    44     8     9    1
    45     3     4    1
@<TRIPOS>MOLECULE
*****
 41 45 0 0 0
SMALL
GASTEIGER

@<TRIPOS>ATOM
      1 C          62.2891   89.9721   11.5299 C.2     1  UNL1        0.2411
      2 O          61.6045   91.0549   12.3101 O.2     1  UNL1       -0.2733
      3 N          63.5939   90.2516   10.8449 N.am    1  UNL1       -0.2966
      4 H          64.0432   89.5409   10.3328 H       1  UNL1        0.1499
      5 C          61.6688   88.6096   11.4347 C.3     1  UNL1        0.1554
      6 C          63.3968   87.4421   12.9842 C.2     1  UNL1        0.4017
      7 O          63.5318   88.7036   13.7843 O.2     1  UNL1       -0.2264
      8 N          62.4653   87.3951   11.8093 N.am    1  UNL1       -0.2637
      9 H          62.3767   86.5670   11.2842 H       1  UNL1        0.1532
     10 O          64.1933   86.2275   13.3588 O.3     1  UNL1       -0.4419
     11 C          63.0883   84.5272   12.7362 C.3     1  UNL1        0.0437
     12 C          63.5272   85.0806   14.0595 C.3     1  UNL1        0.1378
     13 C          63.9662   85.6341   15.3827 C.3     1  UNL1        0.0437
     14 C          62.8611   83.9337   14.7601 C.3     1  UNL1        0.0437
     15 C          60.2520   88.4618   10.9648 C.3     1  UNL1        0.0554
     16 C          59.9688   88.1216    9.5315 C.ar    1  UNL1       -0.0192
     17 C          59.8863   86.6864    9.1035 C.ar    1  UNL1       -0.0041
     18 C          59.6031   86.3463    7.6703 C.ar    1  UNL1        0.0005
     19 C          59.4025   87.4415    6.6651 C.ar    1  UNL1        0.0114
     20 C          59.4850   88.8767    7.0931 C.ar    1  UNL1        0.0574
     21 CL         59.2844   89.9719    6.0879 Cl      1  UNL1       -0.0823
     22 C          59.7682   89.2168    8.5263 C.ar    1  UNL1        0.0072
     23 C          64.2142   91.6140   10.9401 C.3     1  UNL1        0.1543
     24 C          65.0877   91.9603   12.1094 C.ar    1  UNL1        0.1417
     25 N          64.7022   91.8672   13.5560 N.ar    1  UNL1       -0.2276
     26 C          65.8762   92.3100   14.3780 C.ar    1  UNL1        0.1167
     27 C          66.0771   92.4266   15.8599 C.ar    1  UNL1        0.0238
     28 C          67.3890   92.9099   16.4031 C.ar    1  UNL1        0.0223
     29 C          68.5001   93.2766   15.4645 C.ar    1  UNL1        0.1006
     30 N          68.2992   93.1600   13.9826 N.ar    1  UNL1       -0.2252
     31 C          66.9873   92.6767   13.4394 C.ar    1  UNL1        0.1626
     32 N          66.4999   92.4606   12.0373 N.ar    1  UNL1       -0.2990
     33 C          67.2867   92.7024   10.7833 C.3     1  UNL1        0.0898
     34 C          68.2363   92.4634    9.6470 C.3     1  UNL1        0.0273
     35 C          68.0286   91.4022   10.6865 C.3     1  UNL1        0.0273
     36 C          66.8182   94.0865   10.4446 C.ar    1  UNL1       -0.0037
     37 C          66.1908   94.9456   11.5020 C.ar    1  UNL1       -0.0025
     38 C          65.7223   96.3298   11.1633 C.ar    1  UNL1       -0.0003
     39 C          65.8812   96.8547    9.7672 C.ar    1  UNL1       -0.0000
     40 C          66.5086   95.9955    8.7097 C.ar    1  UNL1       -0.0003
     41 C          66.9772   94.6114    9.0484 C.ar    1  UNL1       -0.0025
@<TRIPOS>BOND
     1    11    12    1
     2    12    13    1
     3    12    14    1
     4    12    10    1
     5    10     6    1
     6     6     7    2
     7     6     8   am
     8     8     5    1
     9     5    15    1
    10    15    16    1
    11    16    17   ar
    12    17    18   ar
    13    18    19   ar
    14    19    20   ar
    15    20    21    1
    16    20    22   ar
    17     5     1    1
    18     1     2    2
    19     1     3   am
    20     3    23    1
    21    23    24    1
    22    24    25   ar
    23    25    26   ar
    24    26    27   ar
    25    27    28   ar
    26    28    29   ar
    27    29    30   ar
    28    30    31   ar
    29    31    32   ar
    30    32    33    1
    31    33    36    1
    32    36    37   ar
    33    37    38   ar
    34    38    39   ar
    35    39    40   ar
    36    40    41   ar
    37    33    34    1
    38    34    35    1
    39    22    16   ar
    40    32    24   ar
    41    35    33    1
    42    31    26   ar
    43    41    36   ar
    44     8     9    1
    45     3     4    1
@<TRIPOS>MOLECULE
*****
 41 45 0 0 0
SMALL
GASTEIGER

@<TRIPOS>ATOM
      1 C          63.0862   89.3843   12.4736 C.2     1  UNL1        0.2411
      2 O          62.8922   90.0763   13.7901 O.2     1  UNL1       -0.2733
      3 N          63.6915   90.1256   11.3186 N.am    1  UNL1       -0.2966
      4 H          63.8188   89.6714   10.4544 H       1  UNL1        0.1499
      5 C          62.6749   87.9508   12.3119 C.3     1  UNL1        0.1554
      6 C          61.2970   87.5801   10.1407 C.2     1  UNL1        0.4017
      7 O          62.5135   87.8827    9.3170 O.2     1  UNL1       -0.2264
      8 N          61.3777   87.6141   11.6382 N.am    1  UNL1       -0.2637
      9 H          60.5792   87.4155   12.1789 H       1  UNL1        0.1532
     10 O          59.9998   87.2434    9.4671 O.3     1  UNL1       -0.4419
     11 C          59.8718   89.2859    8.9087 C.3     1  UNL1        0.0437
     12 C          59.5847   87.9803    8.2283 C.3     1  UNL1        0.1378
     13 C          59.2975   86.6747    7.5479 C.3     1  UNL1        0.0437
     14 C          59.1696   88.7173    6.9894 C.3     1  UNL1        0.0437
     15 C          63.5608   86.8541   12.8240 C.3     1  UNL1        0.0554
     16 C          63.2160   85.4206   12.5475 C.ar    1  UNL1       -0.0192
     17 C          63.2284   84.9045   11.1391 C.ar    1  UNL1       -0.0041
     18 C          62.8836   83.4711   10.8626 C.ar    1  UNL1        0.0005
     19 C          62.5264   82.5539   11.9945 C.ar    1  UNL1        0.0114
     20 C          62.5139   83.0700   13.4028 C.ar    1  UNL1        0.0574
     21 CL         62.1567   82.1527   14.5346 Cl      1  UNL1       -0.0823
     22 C          62.8588   84.5034   13.6793 C.ar    1  UNL1        0.0072
     23 C          64.1027   91.5590   11.4801 C.3     1  UNL1        0.1543
     24 C          65.0900   91.9408   12.5430 C.ar    1  UNL1        0.1417
     25 N          64.8494   91.9064   14.0232 N.ar    1  UNL1       -0.2276
     26 C          66.1019   92.3683   14.7072 C.ar    1  UNL1        0.1167
     27 C          66.4495   92.5389   16.1564 C.ar    1  UNL1        0.0238
     28 C          67.8118   93.0295   16.5481 C.ar    1  UNL1        0.0223
     29 C          68.8264   93.3495   15.4907 C.ar    1  UNL1        0.1006
     30 N          68.4788   93.1789   14.0416 N.ar    1  UNL1       -0.2252
     31 C          67.1165   92.6883   13.6498 C.ar    1  UNL1        0.1626
     32 N          66.4911   92.4241   12.3123 N.ar    1  UNL1       -0.2990
     33 C          67.1511   92.6104   10.9782 C.3     1  UNL1        0.0898
     34 C          67.9564   92.3077    9.7495 C.3     1  UNL1        0.0273
     35 C          67.7989   91.2669   10.8181 C.3     1  UNL1        0.0273
     36 C          66.7325   94.0185   10.6749 C.ar    1  UNL1       -0.0037
     37 C          66.8392   94.5477    9.2755 C.ar    1  UNL1       -0.0025
     38 C          66.4206   95.9559    8.9722 C.ar    1  UNL1       -0.0003
     39 C          65.8954   96.8348   10.0684 C.ar    1  UNL1       -0.0000
     40 C          65.7888   96.3055   11.4679 C.ar    1  UNL1       -0.0003
     41 C          66.2073   94.8974   11.7712 C.ar    1  UNL1       -0.0025
@<TRIPOS>BOND
     1    11    12    1
     2    12    13    1
     3    12    14    1
     4    12    10    1
     5    10     6    1
     6     6     7    2
     7     6     8   am
     8     8     5    1
     9     5    15    1
    10    15    16    1
    11    16    17   ar
    12    17    18   ar
    13    18    19   ar
    14    19    20   ar
    15    20    21    1
    16    20    22   ar
    17     5     1    1
    18     1     2    2
    19     1     3   am
    20     3    23    1
    21    23    24    1
    22    24    25   ar
    23    25    26   ar
    24    26    27   ar
    25    27    28   ar
    26    28    29   ar
    27    29    30   ar
    28    30    31   ar
    29    31    32   ar
    30    32    33    1
    31    33    36    1
    32    36    37   ar
    33    37    38   ar
    34    38    39   ar
    35    39    40   ar
    36    40    41   ar
    37    33    34    1
    38    34    35    1
    39    22    16   ar
    40    32    24   ar
    41    35    33    1
    42    31    26   ar
    43    41    36   ar
    44     8     9    1
    45     3     4    1
@<TRIPOS>MOLECULE
*****
 41 45 0 0 0
SMALL
GASTEIGER

@<TRIPOS>ATOM
      1 C          60.6594   89.6563   10.7200 C.2     1  UNL1        0.2411
      2 O          60.0197   91.0099   10.8118 O.2     1  UNL1       -0.2733
      3 N          61.6248   89.2097   11.7777 N.am    1  UNL1       -0.2966
      4 H          62.0446   88.3213   11.7174 H       1  UNL1        0.1499
      5 C          60.3337   88.7492    9.5706 C.3     1  UNL1        0.1554
      6 C          59.3795   88.6566    7.1558 C.2     1  UNL1        0.4017
      7 O          58.5470   87.4663    7.5304 O.2     1  UNL1       -0.2264
      8 N          60.2728   89.2980    8.1759 N.am    1  UNL1       -0.2637
      9 H          60.8192   90.0792    7.9301 H       1  UNL1        0.1532
     10 O          59.3186   89.2054    5.7612 O.3     1  UNL1       -0.4419
     11 C          57.5460   90.3622    5.9011 C.3     1  UNL1        0.0437
     12 C          58.9729   90.6477    5.5373 C.3     1  UNL1        0.1378
     13 C          60.3998   90.9332    5.1734 C.3     1  UNL1        0.0437
     14 C          58.6271   92.0901    5.3133 C.3     1  UNL1        0.0437
     15 C          60.0689   87.2933    9.8159 C.3     1  UNL1        0.0554
     16 C          61.1894   86.3006    9.7198 C.ar    1  UNL1       -0.0192
     17 C          61.8813   86.0752    8.4082 C.ar    1  UNL1       -0.0041
     18 C          63.0017   85.0825    8.3122 C.ar    1  UNL1        0.0005
     19 C          63.4303   84.3153    9.5278 C.ar    1  UNL1        0.0114
     20 C          62.7384   84.5408   10.8394 C.ar    1  UNL1        0.0574
     21 CL         63.1670   83.7736   12.0551 Cl      1  UNL1       -0.0823
     22 C          61.6180   85.5334   10.9354 C.ar    1  UNL1        0.0072
     23 C          61.9505   90.1168   12.9270 C.3     1  UNL1        0.1543
     24 C          63.3570   90.5977   13.1277 C.ar    1  UNL1        0.1417
     25 N          64.2313   91.2264   12.0835 N.ar    1  UNL1       -0.2276
     26 C          65.5509   91.5516   12.7182 C.ar    1  UNL1        0.1167
     27 C          66.7984   92.1820   12.1737 C.ar    1  UNL1        0.0238
     28 C          67.9871   92.3847   13.0658 C.ar    1  UNL1        0.0223
     29 C          67.9283   91.9570   14.5024 C.ar    1  UNL1        0.1006
     30 N          66.6809   91.3267   15.0469 N.ar    1  UNL1       -0.2252
     31 C          65.4922   91.1240   14.1548 C.ar    1  UNL1        0.1626
     32 N          64.1363   90.5345   14.4078 N.ar    1  UNL1       -0.2990
     33 C          63.6458   89.9792   15.7121 C.3     1  UNL1        0.0898
     34 C          63.1109   89.9340   17.1128 C.3     1  UNL1        0.0273
     35 C          63.3477   91.2549   16.4428 C.3     1  UNL1        0.0273
     36 C          63.7735   88.5107   15.4345 C.ar    1  UNL1       -0.0037
     37 C          64.2802   88.0404   14.1034 C.ar    1  UNL1       -0.0025
     38 C          64.4080   86.5718   13.8257 C.ar    1  UNL1       -0.0003
     39 C          64.0290   85.5736   14.8793 C.ar    1  UNL1       -0.0000
     40 C          63.5222   86.0440   16.2105 C.ar    1  UNL1       -0.0003
     41 C          63.3945   87.5125   16.4881 C.ar    1  UNL1       -0.0025
@<TRIPOS>BOND
     1    11    12    1
     2    12    13    1
     3    12    14    1
     4    12    10    1
     5    10     6    1
     6     6     7    2
     7     6     8   am
     8     8     5    1
     9     5    15    1
    10    15    16    1
    11    16    17   ar
    12    17    18   ar
    13    18    19   ar
    14    19    20   ar
    15    20    21    1
    16    20    22   ar
    17     5     1    1
    18     1     2    2
    19     1     3   am
    20     3    23    1
    21    23    24    1
    22    24    25   ar
    23    25    26   ar
    24    26    27   ar
    25    27    28   ar
    26    28    29   ar
    27    29    30   ar
    28    30    31   ar
    29    31    32   ar
    30    32    33    1
    31    33    36    1
    32    36    37   ar
    33    37    38   ar
    34    38    39   ar
    35    39    40   ar
    36    40    41   ar
    37    33    34    1
    38    34    35    1
    39    22    16   ar
    40    32    24   ar
    41    35    33    1
    42    31    26   ar
    43    41    36   ar
    44     8     9    1
    45     3     4    1
@<TRIPOS>MOLECULE
*****
 41 45 0 0 0
SMALL
GASTEIGER

@<TRIPOS>ATOM
      1 C          63.9744   91.0515   12.6526 C.2     1  UNL1        0.2411
      2 O          63.3961   90.6546   13.9785 O.2     1  UNL1       -0.2733
      3 N          63.3791   90.5159   11.3842 N.am    1  UNL1       -0.2966
      4 H          63.7587   90.7765   10.5139 H       1  UNL1        0.1499
      5 C          65.1479   91.9840   12.5950 C.3     1  UNL1        0.1554
      6 C          66.3059   92.0737   14.9191 C.2     1  UNL1        0.4017
      7 O          65.0632   92.6651   15.5155 O.2     1  UNL1       -0.2264
      8 N          66.3483   91.7331   13.4588 N.am    1  UNL1       -0.2637
      9 H          67.1640   91.3449   13.0674 H       1  UNL1        0.1532
     10 O          67.5063   91.8228   15.7829 O.3     1  UNL1       -0.4419
     11 C          69.4223   91.9172   16.6882 C.3     1  UNL1        0.0437
     12 C          68.5589   92.8812   15.9299 C.3     1  UNL1        0.1378
     13 C          67.6954   93.8452   15.1716 C.3     1  UNL1        0.0437
     14 C          69.6115   93.9398   16.0770 C.3     1  UNL1        0.0437
     15 C          65.1211   93.1674   11.6737 C.3     1  UNL1        0.0554
     16 C          66.2211   93.3639   10.6730 C.ar    1  UNL1       -0.0192
     17 C          67.1671   92.2406   10.3681 C.ar    1  UNL1       -0.0041
     18 C          68.2671   92.4371    9.3674 C.ar    1  UNL1        0.0005
     19 C          68.4211   93.7571    8.6717 C.ar    1  UNL1        0.0114
     20 C          67.4750   94.8804    8.9766 C.ar    1  UNL1        0.0574
     21 CL         67.6290   96.2004    8.2809 Cl      1  UNL1       -0.0823
     22 C          66.3751   94.6839    9.9773 C.ar    1  UNL1        0.0072
     23 C          62.2056   89.5835   11.4417 C.3     1  UNL1        0.1543
     24 C          62.4209   88.1222   11.7030 C.ar    1  UNL1        0.1417
     25 N          63.3686   87.5363   12.7073 N.ar    1  UNL1       -0.2276
     26 C          63.2597   86.0423   12.6309 C.ar    1  UNL1        0.1167
     27 C          63.9537   84.9456   13.3830 C.ar    1  UNL1        0.0238
     28 C          63.6326   83.5113   13.0835 C.ar    1  UNL1        0.0223
     29 C          62.6175   83.1737   12.0321 C.ar    1  UNL1        0.1006
     30 N          61.9235   84.2704   11.2800 N.ar    1  UNL1       -0.2252
     31 C          62.2446   85.7047   11.5794 C.ar    1  UNL1        0.1626
     32 N          61.7262   86.9901   11.0060 N.ar    1  UNL1       -0.2990
     33 C          60.6943   87.1206    9.9252 C.3     1  UNL1        0.0898
     34 C          59.4389   87.5375    9.2179 C.3     1  UNL1        0.0273
     35 C          59.6925   87.9906   10.6251 C.3     1  UNL1        0.0273
     36 C          61.3375   86.2960    8.8499 C.ar    1  UNL1       -0.0037
     37 C          62.8101   86.0151    8.9001 C.ar    1  UNL1       -0.0025
     38 C          63.4534   85.1904    7.8248 C.ar    1  UNL1       -0.0003
     39 C          62.6240   84.6467    6.6994 C.ar    1  UNL1       -0.0000
     40 C          61.1514   84.9276    6.6493 C.ar    1  UNL1       -0.0003
     41 C          60.5081   85.7523    7.7245 C.ar    1  UNL1       -0.0025
@<TRIPOS>BOND
     1    11    12    1
     2    12    13    1
     3    12    14    1
     4    12    10    1
     5    10     6    1
     6     6     7    2
     7     6     8   am
     8     8     5    1
     9     5    15    1
    10    15    16    1
    11    16    17   ar
    12    17    18   ar
    13    18    19   ar
    14    19    20   ar
    15    20    21    1
    16    20    22   ar
    17     5     1    1
    18     1     2    2
    19     1     3   am
    20     3    23    1
    21    23    24    1
    22    24    25   ar
    23    25    26   ar
    24    26    27   ar
    25    27    28   ar
    26    28    29   ar
    27    29    30   ar
    28    30    31   ar
    29    31    32   ar
    30    32    33    1
    31    33    36    1
    32    36    37   ar
    33    37    38   ar
    34    38    39   ar
    35    39    40   ar
    36    40    41   ar
    37    33    34    1
    38    34    35    1
    39    22    16   ar
    40    32    24   ar
    41    35    33    1
    42    31    26   ar
    43    41    36   ar
    44     8     9    1
    45     3     4    1
@<TRIPOS>MOLECULE
*****
 41 45 0 0 0
SMALL
GASTEIGER

@<TRIPOS>ATOM
      1 C          62.5863   87.7385   12.2582 C.2     1  UNL1        0.2411
      2 O          61.4674   88.6981   11.9806 O.2     1  UNL1       -0.2733
      3 N          63.6781   88.1160   13.2151 N.am    1  UNL1       -0.2966
      4 H          64.4125   87.4861   13.3972 H       1  UNL1        0.1499
      5 C          62.6136   86.4014   11.5788 C.3     1  UNL1        0.1554
      6 C          63.0276   84.5759   13.3805 C.2     1  UNL1        0.4017
      7 O          64.3513   85.2003   13.7090 O.2     1  UNL1       -0.2264
      8 N          62.1587   85.1765   12.3154 N.am    1  UNL1       -0.2637
      9 H          61.2899   84.7667   12.0998 H       1  UNL1        0.1532
     10 O          62.5727   83.3510   14.1171 O.3     1  UNL1       -0.4419
     11 C          63.9344   82.4391   12.7702 C.3     1  UNL1        0.0437
     12 C          62.6809   82.0026   13.4689 C.3     1  UNL1        0.1378
     13 C          61.4274   81.5662   14.1676 C.3     1  UNL1        0.0437
     14 C          62.7891   80.6542   12.8206 C.3     1  UNL1        0.0437
     15 C          63.0958   86.2893   10.1629 C.3     1  UNL1        0.0554
     16 C          62.1178   86.0269    9.0561 C.ar    1  UNL1       -0.0192
     17 C          60.7257   86.5793    9.1387 C.ar    1  UNL1       -0.0041
     18 C          59.7478   86.3168    8.0320 C.ar    1  UNL1        0.0005
     19 C          60.1621   85.5021    6.8427 C.ar    1  UNL1        0.0114
     20 C          61.5542   84.9497    6.7600 C.ar    1  UNL1        0.0574
     21 CL         61.9684   84.1350    5.5707 Cl      1  UNL1       -0.0823
     22 C          62.5321   85.2121    7.8668 C.ar    1  UNL1        0.0072
     23 C          63.6508   89.4530   13.8944 C.3     1  UNL1        0.1543
     24 C          64.2095   90.6591   13.1992 C.ar    1  UNL1        0.1417
     25 N          64.1327   90.9433   11.7284 N.ar    1  UNL1       -0.2276
     26 C          64.8187   92.2526   11.4728 C.ar    1  UNL1        0.1167
     27 C          65.0520   93.0346   10.2143 C.ar    1  UNL1        0.0238
     28 C          65.7862   94.3415   10.2686 C.ar    1  UNL1        0.0223
     29 C          66.2870   94.8664   11.5815 C.ar    1  UNL1        0.1006
     30 N          66.0536   94.0844   12.8400 N.ar    1  UNL1       -0.2252
     31 C          65.3195   92.7775   12.7857 C.ar    1  UNL1        0.1626
     32 N          64.9430   91.7926   13.8526 N.ar    1  UNL1       -0.2990
     33 C          65.2466   91.9192   15.3161 C.3     1  UNL1        0.0898
     34 C          65.0413   91.9370   16.8019 C.3     1  UNL1        0.0273
     35 C          63.8864   91.6502   15.8886 C.3     1  UNL1        0.0273
     36 C          66.7122   92.2321   15.2519 C.ar    1  UNL1       -0.0037
     37 C          67.5982   91.4824   14.3017 C.ar    1  UNL1       -0.0025
     38 C          69.0639   91.7953   14.2375 C.ar    1  UNL1       -0.0003
     39 C          69.6434   92.8579   15.1236 C.ar    1  UNL1       -0.0000
     40 C          68.7573   93.6076   16.0738 C.ar    1  UNL1       -0.0003
     41 C          67.2917   93.2947   16.1380 C.ar    1  UNL1       -0.0025
@<TRIPOS>BOND
     1    11    12    1
     2    12    13    1
     3    12    14    1
     4    12    10    1
     5    10     6    1
     6     6     7    2
     7     6     8   am
     8     8     5    1
     9     5    15    1
    10    15    16    1
    11    16    17   ar
    12    17    18   ar
    13    18    19   ar
    14    19    20   ar
    15    20    21    1
    16    20    22   ar
    17     5     1    1
    18     1     2    2
    19     1     3   am
    20     3    23    1
    21    23    24    1
    22    24    25   ar
    23    25    26   ar
    24    26    27   ar
    25    27    28   ar
    26    28    29   ar
    27    29    30   ar
    28    30    31   ar
    29    31    32   ar
    30    32    33    1
    31    33    36    1
    32    36    37   ar
    33    37    38   ar
    34    38    39   ar
    35    39    40   ar
    36    40    41   ar
    37    33    34    1
    38    34    35    1
    39    22    16   ar
    40    32    24   ar
    41    35    33    1
    42    31    26   ar
    43    41    36   ar
    44     8     9    1
    45     3     4    1
@<TRIPOS>MOLECULE
*****
 41 45 0 0 0
SMALL
GASTEIGER

@<TRIPOS>ATOM
      1 C          63.0427   89.8474   12.6848 C.2     1  UNL1        0.2411
      2 O          61.8477   90.4161   11.9787 O.2     1  UNL1       -0.2733
      3 N          63.3684   88.3892   12.5525 N.am    1  UNL1       -0.2966
      4 H          64.1527   88.0160   13.0159 H       1  UNL1        0.1499
      5 C          63.9120   90.7370   13.5234 C.3     1  UNL1        0.1554
      6 C          66.0827   92.1421   13.2707 C.2     1  UNL1        0.4017
      7 O          66.7618   91.2762   14.2901 O.2     1  UNL1       -0.2264
      8 N          64.6577   91.8724   12.8874 N.am    1  UNL1       -0.2637
      9 H          64.2120   92.4407   12.2183 H       1  UNL1        0.1532
     10 O          66.8285   93.2775   12.6347 O.3     1  UNL1       -0.4419
     11 C          66.0084   94.7640   11.3628 C.3     1  UNL1        0.0437
     12 C          66.7588   93.4827   11.1505 C.3     1  UNL1        0.1378
     13 C          67.5091   92.2013   10.9382 C.3     1  UNL1        0.0437
     14 C          66.6890   93.6879    9.6662 C.3     1  UNL1        0.0437
     15 C          64.0355   90.4910   14.9979 C.3     1  UNL1        0.0554
     16 C          63.8602   89.1051   15.5443 C.ar    1  UNL1       -0.0192
     17 C          62.9412   88.8675   16.7057 C.ar    1  UNL1       -0.0041
     18 C          62.7659   87.4816   17.2521 C.ar    1  UNL1        0.0005
     19 C          63.5097   86.3333   16.6371 C.ar    1  UNL1        0.0114
     20 C          64.4287   86.5709   15.4756 C.ar    1  UNL1        0.0574
     21 CL         65.1724   85.4226   14.8606 Cl      1  UNL1       -0.0823
     22 C          64.6039   87.9568   14.9293 C.ar    1  UNL1        0.0072
     23 C          62.4992   87.4997   11.7140 C.3     1  UNL1        0.1543
     24 C          62.5352   86.0132   11.9119 C.ar    1  UNL1        0.1417
     25 N          62.4269   85.2957   13.2247 N.ar    1  UNL1       -0.2276
     26 C          62.5106   83.8223   12.9560 C.ar    1  UNL1        0.1167
     27 C          62.4618   82.6316   13.8668 C.ar    1  UNL1        0.0238
     28 C          62.5729   81.2478   13.2988 C.ar    1  UNL1        0.0223
     29 C          62.7328   81.0547   11.8199 C.ar    1  UNL1        0.1006
     30 N          62.7816   82.2455   10.9090 N.ar    1  UNL1       -0.2252
     31 C          62.6705   83.6293   11.4771 C.ar    1  UNL1        0.1626
     32 N          62.6857   84.9833   10.8318 N.ar    1  UNL1       -0.2990
     33 C          62.8267   85.2590    9.3641 C.3     1  UNL1        0.0898
     34 C          63.3347   85.1696    7.9556 C.3     1  UNL1        0.0273
     35 C          63.9323   84.3036    9.0246 C.3     1  UNL1        0.0273
     36 C          61.7702   86.3100    9.1938 C.ar    1  UNL1       -0.0037
     37 C          60.3449   85.9088    8.9540 C.ar    1  UNL1       -0.0025
     38 C          59.2883   86.9599    8.7837 C.ar    1  UNL1       -0.0003
     39 C          59.6572   88.4122    8.8532 C.ar    1  UNL1       -0.0000
     40 C          61.0825   88.8134    9.0930 C.ar    1  UNL1       -0.0003
     41 C          62.1390   87.7623    9.2634 C.ar    1  UNL1       -0.0025
@<TRIPOS>BOND
     1    11    12    1
     2    12    13    1
     3    12    14    1
     4    12    10    1
     5    10     6    1
     6     6     7    2
     7     6     8   am
     8     8     5    1
     9     5    15    1
    10    15    16    1
    11    16    17   ar
    12    17    18   ar
    13    18    19   ar
    14    19    20   ar
    15    20    21    1
    16    20    22   ar
    17     5     1    1
    18     1     2    2
    19     1     3   am
    20     3    23    1
    21    23    24    1
    22    24    25   ar
    23    25    26   ar
    24    26    27   ar
    25    27    28   ar
    26    28    29   ar
    27    29    30   ar
    28    30    31   ar
    29    31    32   ar
    30    32    33    1
    31    33    36    1
    32    36    37   ar
    33    37    38   ar
    34    38    39   ar
    35    39    40   ar
    36    40    41   ar
    37    33    34    1
    38    34    35    1
    39    22    16   ar
    40    32    24   ar
    41    35    33    1
    42    31    26   ar
    43    41    36   ar
    44     8     9    1
    45     3     4    1
@<TRIPOS>MOLECULE
*****
 41 45 0 0 0
SMALL
GASTEIGER

@<TRIPOS>ATOM
      1 C          60.6268   87.1938    8.6827 C.2     1  UNL1        0.2411
      2 O          61.1856   86.2857    7.6276 O.2     1  UNL1       -0.2733
      3 N          60.7018   86.7995   10.1280 N.am    1  UNL1       -0.2966
      4 H          60.3350   87.3955   10.8205 H       1  UNL1        0.1499
      5 C          59.9929   88.4961    8.2925 C.3     1  UNL1        0.1554
      6 C          61.6337   89.8789    9.7574 C.2     1  UNL1        0.4017
      7 O          62.6341   88.7633    9.6899 O.2     1  UNL1       -0.2264
      8 N          60.3131   89.7453    9.0586 N.am    1  UNL1       -0.2637
      9 H          59.6565   90.4775    9.1028 H       1  UNL1        0.1532
     10 O          61.9538   91.1281   10.5235 O.3     1  UNL1       -0.4419
     11 C          63.9371   91.8808   10.5254 C.3     1  UNL1        0.0437
     12 C          63.0849   91.1346   11.5087 C.3     1  UNL1        0.1378
     13 C          62.2327   90.3883   12.4919 C.3     1  UNL1        0.0437
     14 C          64.2160   91.1410   12.4939 C.3     1  UNL1        0.0437
     15 C          59.0390   88.5492    7.1362 C.3     1  UNL1        0.0554
     16 C          59.0551   89.7242    6.2038 C.ar    1  UNL1       -0.0192
     17 C          57.7848   90.4654    5.9092 C.ar    1  UNL1       -0.0041
     18 C          57.8010   91.6403    4.9769 C.ar    1  UNL1        0.0005
     19 C          59.0876   92.0741    4.3393 C.ar    1  UNL1        0.0114
     20 C          60.3579   91.3329    4.6339 C.ar    1  UNL1        0.0574
     21 CL         61.6445   91.7667    3.9963 Cl      1  UNL1       -0.0823
     22 C          60.3417   90.1580    5.5662 C.ar    1  UNL1        0.0072
     23 C          61.3356   85.4972   10.5183 C.3     1  UNL1        0.1543
     24 C          62.3673   85.4616   11.6065 C.ar    1  UNL1        0.1417
     25 N          62.6437   86.5549   12.5956 N.ar    1  UNL1       -0.2276
     26 C          63.7511   86.0954   13.4970 C.ar    1  UNL1        0.1167
     27 C          64.4406   86.7532   14.6554 C.ar    1  UNL1        0.0238
     28 C          65.5381   86.0337   15.3818 C.ar    1  UNL1        0.0223
     29 C          65.9461   84.6564   14.9498 C.ar    1  UNL1        0.1006
     30 N          65.2566   83.9986   13.7915 N.ar    1  UNL1       -0.2252
     31 C          64.1591   84.7181   13.0651 C.ar    1  UNL1        0.1626
     32 N          63.3039   84.3264   11.8967 N.ar    1  UNL1       -0.2990
     33 C          63.3731   83.0275   11.1496 C.3     1  UNL1        0.0898
     34 C          63.6514   82.0481   10.0481 C.3     1  UNL1        0.0273
     35 C          63.9991   83.4962    9.8695 C.3     1  UNL1        0.0273
     36 C          62.7712   82.1076   12.1701 C.ar    1  UNL1       -0.0037
     37 C          62.0613   82.6738   13.3640 C.ar    1  UNL1       -0.0025
     38 C          61.4593   81.7539   14.3846 C.ar    1  UNL1       -0.0003
     39 C          61.5674   80.2679   14.2112 C.ar    1  UNL1       -0.0000
     40 C          62.2773   79.7017   13.0172 C.ar    1  UNL1       -0.0003
     41 C          62.8792   80.6216   11.9967 C.ar    1  UNL1       -0.0025
@<TRIPOS>BOND
     1    11    12    1
     2    12    13    1
     3    12    14    1
     4    12    10    1
     5    10     6    1
     6     6     7    2
     7     6     8   am
     8     8     5    1
     9     5    15    1
    10    15    16    1
    11    16    17   ar
    12    17    18   ar
    13    18    19   ar
    14    19    20   ar
    15    20    21    1
    16    20    22   ar
    17     5     1    1
    18     1     2    2
    19     1     3   am
    20     3    23    1
    21    23    24    1
    22    24    25   ar
    23    25    26   ar
    24    26    27   ar
    25    27    28   ar
    26    28    29   ar
    27    29    30   ar
    28    30    31   ar
    29    31    32   ar
    30    32    33    1
    31    33    36    1
    32    36    37   ar
    33    37    38   ar
    34    38    39   ar
    35    39    40   ar
    36    40    41   ar
    37    33    34    1
    38    34    35    1
    39    22    16   ar
    40    32    24   ar
    41    35    33    1
    42    31    26   ar
    43    41    36   ar
    44     8     9    1
    45     3     4    1
@<TRIPOS>MOLECULE
*****
 41 45 0 0 0
SMALL
GASTEIGER

@<TRIPOS>ATOM
      1 C          61.5508   88.0470    9.6271 C.2     1  UNL1        0.2411
      2 O          62.9915   87.7921    9.2963 O.2     1  UNL1       -0.2733
      3 N          60.7257   86.9691   10.2652 N.am    1  UNL1       -0.2966
      4 H          59.7801   87.1364   10.4823 H       1  UNL1        0.1499
      5 C          60.9352   89.3799    9.3197 C.3     1  UNL1        0.1554
      6 C          59.2475   88.8305    7.4223 C.2     1  UNL1        0.4017
      7 O          58.6622   87.7330    8.2607 O.2     1  UNL1       -0.2264
      8 N          60.3840   89.6539    7.9518 N.am    1  UNL1       -0.2637
      9 H          60.7682   90.3743    7.4015 H       1  UNL1        0.1532
     10 O          58.6964   89.1045    6.0544 O.3     1  UNL1       -0.4419
     11 C          57.2455   90.5891    5.6177 C.3     1  UNL1        0.0437
     12 C          58.7375   90.4953    5.4941 C.3     1  UNL1        0.1378
     13 C          60.2294   90.4014    5.3705 C.3     1  UNL1        0.0437
     14 C          58.7785   91.8861    4.9337 C.3     1  UNL1        0.0437
     15 C          60.8707   90.4388   10.3802 C.3     1  UNL1        0.0554
     16 C          62.0775   90.7322   11.2214 C.ar    1  UNL1       -0.0192
     17 C          63.2249   91.5060   10.6429 C.ar    1  UNL1       -0.0041
     18 C          64.4316   91.7994   11.4841 C.ar    1  UNL1        0.0005
     19 C          64.4910   91.3189   12.9038 C.ar    1  UNL1        0.0114
     20 C          63.3437   90.5450   13.4823 C.ar    1  UNL1        0.0574
     21 CL         63.4031   90.0645   14.9020 Cl      1  UNL1       -0.0823
     22 C          62.1370   90.2517   12.6411 C.ar    1  UNL1        0.0072
     23 C          61.3413   85.6362   10.5726 C.3     1  UNL1        0.1543
     24 C          62.3804   85.5201   11.6481 C.ar    1  UNL1        0.1417
     25 N          62.7000   86.5596   12.6812 N.ar    1  UNL1       -0.2276
     26 C          63.7995   86.0261   13.5510 C.ar    1  UNL1        0.1167
     27 C          64.5195   86.6102   14.7301 C.ar    1  UNL1        0.0238
     28 C          65.5993   85.8251   15.4137 C.ar    1  UNL1        0.0223
     29 C          65.9593   84.4558   14.9181 C.ar    1  UNL1        0.1006
     30 N          65.2394   83.8717   13.7390 N.ar    1  UNL1       -0.2252
     31 C          64.1595   84.6569   13.0554 C.ar    1  UNL1        0.1626
     32 N          63.2824   84.3442   11.8794 N.ar    1  UNL1       -0.2990
     33 C          63.3037   83.0778   11.0757 C.3     1  UNL1        0.0898
     34 C          63.5207   82.1440    9.9221 C.3     1  UNL1        0.0273
     35 C          63.8749   83.5955    9.7889 C.3     1  UNL1        0.0273
     36 C          62.7399   82.1203   12.0833 C.ar    1  UNL1       -0.0037
     37 C          62.0117   82.6409   13.2869 C.ar    1  UNL1       -0.0025
     38 C          61.4478   81.6834   14.2946 C.ar    1  UNL1       -0.0003
     39 C          61.6123   80.2054   14.0986 C.ar    1  UNL1       -0.0000
     40 C          62.3405   79.6848   12.8949 C.ar    1  UNL1       -0.0003
     41 C          62.9043   80.6423   11.8873 C.ar    1  UNL1       -0.0025
@<TRIPOS>BOND
     1    11    12    1
     2    12    13    1
     3    12    14    1
     4    12    10    1
     5    10     6    1
     6     6     7    2
     7     6     8   am
     8     8     5    1
     9     5    15    1
    10    15    16    1
    11    16    17   ar
    12    17    18   ar
    13    18    19   ar
    14    19    20   ar
    15    20    21    1
    16    20    22   ar
    17     5     1    1
    18     1     2    2
    19     1     3   am
    20     3    23    1
    21    23    24    1
    22    24    25   ar
    23    25    26   ar
    24    26    27   ar
    25    27    28   ar
    26    28    29   ar
    27    29    30   ar
    28    30    31   ar
    29    31    32   ar
    30    32    33    1
    31    33    36    1
    32    36    37   ar
    33    37    38   ar
    34    38    39   ar
    35    39    40   ar
    36    40    41   ar
    37    33    34    1
    38    34    35    1
    39    22    16   ar
    40    32    24   ar
    41    35    33    1
    42    31    26   ar
    43    41    36   ar
    44     8     9    1
    45     3     4    1
