@<TRIPOS>MOLECULE
*****
 14 13 0 0 0
SMALL
GASTEIGER

@<TRIPOS>ATOM
      1 CB         62.7302   81.7277   11.7244 C.3     1  GLN1        0.0307
      2 CA         63.4851   83.0235   11.7583 C.3     1  GLN1        0.0883
      3 N          64.9742   83.0290   11.5778 N.3     1  GLN1       -0.3179
      4 H1         65.3041   82.0730   11.4450 H       1  GLN1        0.1191
      5 H2         65.4156   83.4290   12.4058 H       1  GLN1        0.1191
      6 C          62.7509   84.3138   11.9728 C.2     1  GLN1        0.0644
      7 O          62.2357   85.0881   10.7959 O.co2   1  GLN1       -0.5478
      8 OXT        62.5318   84.8298   13.3641 O.co2   1  GLN1       -0.5478
      9 CG         62.6398   80.8798   12.9584 C.3     1  GLN1        0.0866
     10 NE2        62.4149   82.3295   15.1027 N.am    1  GLN1       -0.3288
     11 CD         61.8303   81.3470   14.1316 C.2     1  GLN1        0.2194
     12 OE1        60.4362   80.8316   14.3338 O.2     1  GLN1       -0.2753
     13 HE21       61.8836   82.6361   15.8727 H       1  GLN1        0.1449
     14 HE22       63.3299   82.6678   14.9700 H       1  GLN1        0.1449
@<TRIPOS>UNITY_ATOM_ATTR
7 1
charge -1
@<TRIPOS>BOND
     1    10    11   am
     2    11    12    2
     3    11     9    1
     4     9     1    1
     5     1     2    1
     6     2     3    1
     7     2     6    1
     8     6     7   ar
     9     6     8   ar
    10    10    13    1
    11    10    14    1
    12     3     4    1
    13     3     5    1
@<TRIPOS>MOLECULE
*****
 14 13 0 0 0
SMALL
GASTEIGER

@<TRIPOS>ATOM
      1 CB         64.9574   91.2944   13.6542 C.3     1  GLN1        0.0307
      2 CA         66.0018   92.3443   13.8936 C.3     1  GLN1        0.0883
      3 N          65.9545   93.1789   15.1391 N.3     1  GLN1       -0.3179
      4 H1         65.1532   92.8998   15.7052 H       1  GLN1        0.1191
      5 H2         65.8656   94.1629   14.8858 H       1  GLN1        0.1191
      6 C          67.0933   92.5595   12.8876 C.2     1  GLN1        0.0644
      7 O          68.3621   91.7643   12.9759 O.co2   1  GLN1       -0.5478
      8 OXT        66.9161   93.5699   11.7932 O.co2   1  GLN1       -0.5478
      9 CG         64.6868   90.2536   14.6998 C.3     1  GLN1        0.0866
     10 NE2        62.6045   89.4392   16.0231 N.am    1  GLN1       -0.3288
     11 CD         63.6344   90.4929   15.7415 C.2     1  GLN1        0.2194
     12 OE1        63.6118   91.7858   16.5017 O.2     1  GLN1       -0.2753
     13 HE21       61.9138   89.5962   16.7068 H       1  GLN1        0.1449
     14 HE22       62.6193   88.5906   15.5242 H       1  GLN1        0.1449
@<TRIPOS>UNITY_ATOM_ATTR
7 1
charge -1
@<TRIPOS>BOND
     1    10    11   am
     2    11    12    2
     3    11     9    1
     4     9     1    1
     5     1     2    1
     6     2     3    1
     7     2     6    1
     8     6     7   ar
     9     6     8   ar
    10    10    13    1
    11    10    14    1
    12     3     4    1
    13     3     5    1
@<TRIPOS>MOLECULE
*****
 14 13 0 0 0
SMALL
GASTEIGER

@<TRIPOS>ATOM
      1 CB         65.0802   91.2703   14.3506 C.3     1  GLN1        0.0307
      2 CA         64.0946   90.9064   15.4211 C.3     1  GLN1        0.0883
      3 N          63.7744   91.8866   16.5104 N.3     1  GLN1       -0.3179
      4 H1         64.3130   92.7411   16.3680 H       1  GLN1        0.1191
      5 H2         64.0142   91.4803   17.4148 H       1  GLN1        0.1191
      6 C          63.4291   89.5622   15.4024 C.2     1  GLN1        0.0644
      7 O          62.1389   89.3537   16.1386 O.co2   1  GLN1       -0.5478
      8 OXT        64.0538   88.4265   14.6474 O.co2   1  GLN1       -0.5478
      9 CG         66.5511   91.2378   14.6428 C.3     1  GLN1        0.0866
     10 NE2        66.6859   93.1444   16.4026 N.am    1  GLN1       -0.3288
     11 CD         67.2346   92.4568   15.1875 C.2     1  GLN1        0.2194
     12 OE1        68.4667   92.9884   14.5173 O.2     1  GLN1       -0.2753
     13 HE21       67.1345   93.9445   16.7601 H       1  GLN1        0.1449
     14 HE22       65.8772   92.7956   16.8425 H       1  GLN1        0.1449
@<TRIPOS>UNITY_ATOM_ATTR
7 1
charge -1
@<TRIPOS>BOND
     1    10    11   am
     2    11    12    2
     3    11     9    1
     4     9     1    1
     5     1     2    1
     6     2     3    1
     7     2     6    1
     8     6     7   ar
     9     6     8   ar
    10    10    13    1
    11    10    14    1
    12     3     4    1
    13     3     5    1
@<TRIPOS>MOLECULE
*****
 14 13 0 0 0
SMALL
GASTEIGER

@<TRIPOS>ATOM
      1 CB         64.2808   82.8504   12.5590 C.3     1  GLN1        0.0307
      2 CA         64.3579   84.0308   13.4814 C.3     1  GLN1        0.0883
      3 N          65.6097   84.2886   14.2667 N.3     1  GLN1       -0.3179
      4 H1         66.2997   83.5685   14.0525 H       1  GLN1        0.1191
      5 H2         65.3957   84.2686   15.2638 H       1  GLN1        0.1191
      6 C          63.1832   84.9535   13.6186 C.2     1  GLN1        0.0644
      7 O          62.1613   84.7125   14.6898 O.co2   1  GLN1       -0.5478
      8 OXT        63.0304   86.1171   12.6844 O.co2   1  GLN1       -0.5478
      9 CG         62.9713   82.1516   12.3431 C.3     1  GLN1        0.0866
     10 NE2        62.1119   81.6482   14.7428 N.am    1  GLN1       -0.3288
     11 CD         62.4648   81.1757   13.3635 C.2     1  GLN1        0.2194
     12 OE1        62.3112   79.7274   13.0047 O.2     1  GLN1       -0.2753
     13 HE21       61.7794   81.0077   15.4125 H       1  GLN1        0.1449
     14 HE22       62.2127   82.5988   14.9783 H       1  GLN1        0.1449
@<TRIPOS>UNITY_ATOM_ATTR
7 1
charge -1
@<TRIPOS>BOND
     1    10    11   am
     2    11    12    2
     3    11     9    1
     4     9     1    1
     5     1     2    1
     6     2     3    1
     7     2     6    1
     8     6     7   ar
     9     6     8   ar
    10    10    13    1
    11    10    14    1
    12     3     4    1
    13     3     5    1
@<TRIPOS>MOLECULE
*****
 14 13 0 0 0
SMALL
GASTEIGER

@<TRIPOS>ATOM
      1 CB         60.7663   86.2463    8.1596 C.3     1  GLN1        0.0307
      2 CA         59.5620   87.1141    7.9436 C.3     1  GLN1        0.0883
      3 N          58.2205   86.4884    7.7010 N.3     1  GLN1       -0.3179
      4 H1         58.3114   85.4726    7.7161 H       1  GLN1        0.1191
      5 H2         57.8667   86.7847    6.7914 H       1  GLN1        0.1191
      6 C          59.6992   88.6076    7.9703 C.2     1  GLN1        0.0644
      7 O          59.5396   89.3981    6.7056 O.co2   1  GLN1       -0.5478
      8 OXT        59.9961   89.3106    9.2618 O.co2   1  GLN1       -0.5478
      9 CG         61.7562   86.5906    9.2327 C.3     1  GLN1        0.0866
     10 NE2        60.5861   87.2640   11.4525 N.am    1  GLN1       -0.3288
     11 CD         61.4339   86.3056   10.6696 C.2     1  GLN1        0.2194
     12 OE1        61.9595   85.0623   11.3238 O.2     1  GLN1       -0.2753
     13 HE21       60.3746   87.0769   12.3957 H       1  GLN1        0.1449
     14 HE22       60.2411   88.0800   11.0232 H       1  GLN1        0.1449
@<TRIPOS>UNITY_ATOM_ATTR
7 1
charge -1
@<TRIPOS>BOND
     1    10    11   am
     2    11    12    2
     3    11     9    1
     4     9     1    1
     5     1     2    1
     6     2     3    1
     7     2     6    1
     8     6     7   ar
     9     6     8   ar
    10    10    13    1
    11    10    14    1
    12     3     4    1
    13     3     5    1
@<TRIPOS>MOLECULE
*****
 14 13 0 0 0
SMALL
GASTEIGER

@<TRIPOS>ATOM
      1 CB         59.8938   88.7214    8.3695 C.3     1  GLN1        0.0307
      2 CA         59.6886   87.2364    8.3182 C.3     1  GLN1        0.0883
      3 N          58.3856   86.6757    7.8306 N.3     1  GLN1       -0.3179
      4 H1         57.7598   87.4405    7.5776 H       1  GLN1        0.1191
      5 H2         57.9582   86.1169    8.5692 H       1  GLN1        0.1191
      6 C          60.7864   86.3120    8.7545 C.2     1  GLN1        0.0644
      7 O          61.6762   85.6692    7.7322 O.co2   1  GLN1       -0.5478
      8 OXT        60.9945   86.0305   10.2131 O.co2   1  GLN1       -0.5478
      9 CG         60.6079   89.3401    9.5345 C.3     1  GLN1        0.0866
     10 NE2        59.7150   88.3589   11.7684 N.am    1  GLN1       -0.3288
     11 CD         59.8934   89.5239   10.8405 C.2     1  GLN1        0.2194
     12 OE1        59.3571   90.8728   11.2186 O.2     1  GLN1       -0.2753
     13 HE21       59.2460   88.4795   12.6255 H       1  GLN1        0.1449
     14 HE22       60.0669   87.4735   11.5202 H       1  GLN1        0.1449
@<TRIPOS>UNITY_ATOM_ATTR
7 1
charge -1
@<TRIPOS>BOND
     1    10    11   am
     2    11    12    2
     3    11     9    1
     4     9     1    1
     5     1     2    1
     6     2     3    1
     7     2     6    1
     8     6     7   ar
     9     6     8   ar
    10    10    13    1
    11    10    14    1
    12     3     4    1
    13     3     5    1
@<TRIPOS>MOLECULE
*****
 14 13 0 0 0
SMALL
GASTEIGER

@<TRIPOS>ATOM
      1 CB         64.2960   89.0392   14.3213 C.3     1  GLN1        0.0307
      2 CA         63.6332   89.8858   15.3673 C.3     1  GLN1        0.0883
      3 N          62.4785   89.3392   16.1534 N.3     1  GLN1       -0.3179
      4 H1         62.2800   88.3864   15.8483 H       1  GLN1        0.1191
      5 H2         61.6563   89.9233   16.0007 H       1  GLN1        0.1191
      6 C          64.1250   91.2788   15.6272 C.2     1  GLN1        0.0644
      7 O          63.5694   92.0684   16.7751 O.co2   1  GLN1       -0.5478
      8 OXT        65.1725   91.8822   14.7391 O.co2   1  GLN1       -0.5478
      9 CG         63.6489   88.8610   12.9799 C.3     1  GLN1        0.0866
     10 NE2        61.2852   89.8552   12.5622 N.am    1  GLN1       -0.3288
     11 CD         62.7757   89.9439   12.4187 C.2     1  GLN1        0.2194
     12 OE1        63.3930   91.1154   11.7141 O.2     1  GLN1       -0.2753
     13 HE21       60.7120   90.5659   12.1938 H       1  GLN1        0.1449
     14 HE22       60.8800   89.0863   13.0246 H       1  GLN1        0.1449
@<TRIPOS>UNITY_ATOM_ATTR
7 1
charge -1
@<TRIPOS>BOND
     1    10    11   am
     2    11    12    2
     3    11     9    1
     4     9     1    1
     5     1     2    1
     6     2     3    1
     7     2     6    1
     8     6     7   ar
     9     6     8   ar
    10    10    13    1
    11    10    14    1
    12     3     4    1
    13     3     5    1
@<TRIPOS>MOLECULE
*****
 14 13 0 0 0
SMALL
GASTEIGER

@<TRIPOS>ATOM
      1 CB         65.5811   91.7967   13.5151 C.3     1  GLN1        0.0307
      2 CA         66.4987   92.9520   13.7859 C.3     1  GLN1        0.0883
      3 N          66.4874   94.1472   12.8795 N.3     1  GLN1       -0.3179
      4 H1         65.8014   94.0052   12.1382 H       1  GLN1        0.1191
      5 H2         67.4124   94.2704   12.4678 H       1  GLN1        0.1191
      6 C          67.4275   92.9122   14.9630 C.2     1  GLN1        0.0644
      7 O          68.9058   92.7769   14.7476 O.co2   1  GLN1       -0.5478
      8 OXT        66.8781   93.0076   16.3555 O.co2   1  GLN1       -0.5478
      9 CG         65.2405   90.8356   14.6152 C.3     1  GLN1        0.0866
     10 NE2        62.7595   90.0644   14.6299 N.am    1  GLN1       -0.3288
     11 CD         63.8759   90.8611   15.2375 C.2     1  GLN1        0.2194
     12 OE1        63.6277   91.6832   16.4673 O.2     1  GLN1       -0.2753
     13 HE21       61.8639   90.0811   15.0384 H       1  GLN1        0.1449
     14 HE22       62.9225   89.5248   13.8227 H       1  GLN1        0.1449
@<TRIPOS>UNITY_ATOM_ATTR
7 1
charge -1
@<TRIPOS>BOND
     1    10    11   am
     2    11    12    2
     3    11     9    1
     4     9     1    1
     5     1     2    1
     6     2     3    1
     7     2     6    1
     8     6     7   ar
     9     6     8   ar
    10    10    13    1
    11    10    14    1
    12     3     4    1
    13     3     5    1
@<TRIPOS>MOLECULE
*****
 14 13 0 0 0
SMALL
GASTEIGER

@<TRIPOS>ATOM
      1 CB         65.4050   93.1796   10.7788 C.3     1  GLN1        0.0307
      2 CA         66.1733   94.4414   10.5184 C.3     1  GLN1        0.0883
      3 N          65.8572   95.6856   11.2943 N.3     1  GLN1       -0.3179
      4 H1         65.0998   95.4941   11.9501 H       1  GLN1        0.1191
      5 H2         65.5716   96.4240   10.6512 H       1  GLN1        0.1191
      6 C          67.2577   94.4589    9.4822 C.2     1  GLN1        0.0644
      7 O          68.6128   93.9028    9.8052 O.co2   1  GLN1       -0.5478
      8 OXT        66.9870   95.0325    8.1228 O.co2   1  GLN1       -0.5478
      9 CG         65.5825   92.4475   12.0759 C.3     1  GLN1        0.0866
     10 NE2        67.9194   92.2850   13.1996 N.am    1  GLN1       -0.3288
     11 CD         66.5754   92.9414   13.0859 C.2     1  GLN1        0.2194
     12 OE1        66.2242   94.0916   13.9825 O.2     1  GLN1       -0.2753
     13 HE21       68.5710   92.6092   13.8626 H       1  GLN1        0.1449
     14 HE22       68.1499   91.5301   12.6112 H       1  GLN1        0.1449
@<TRIPOS>UNITY_ATOM_ATTR
7 1
charge -1
@<TRIPOS>BOND
     1    10    11   am
     2    11    12    2
     3    11     9    1
     4     9     1    1
     5     1     2    1
     6     2     3    1
     7     2     6    1
     8     6     7   ar
     9     6     8   ar
    10    10    13    1
    11    10    14    1
    12     3     4    1
    13     3     5    1
