@<TRIPOS>MOLECULE
*****
 36 40 0 0 0
SMALL
GASTEIGER

@<TRIPOS>ATOM
      1 O          58.2718   89.3438    6.6197 O.3     1  UNL1       -0.4535
      2 C          60.1878   92.2839    3.8028 C.ar    1  UNL1        0.0536
      3 C          58.7050   92.3171    4.0272 C.ar    1  UNL1        0.0076
      4 C          58.0664   91.3371    4.9661 C.ar    1  UNL1        0.0376
      5 C          58.9104   90.3238    5.6808 C.ar    1  UNL1        0.1453
      6 C          60.3933   90.2905    5.4564 C.ar    1  UNL1        0.0376
      7 C          61.0319   91.2706    4.5173 C.ar    1  UNL1        0.0076
      8 O          60.1258   94.5471    2.5285 O.2     1  UNL1       -0.2701
      9 C          60.8264   93.2639    2.8638 C.2     1  UNL1        0.2461
     10 N          62.1656   92.9607    2.2601 N.am    1  UNL1       -0.2969
     11 H          62.6254   92.1184    2.4802 H       1  UNL1        0.1501
     12 C          62.8043   93.9407    1.3211 C.3     1  UNL1        0.1167
     13 C          62.6203   93.7896   -0.1599 C.ar    1  UNL1        0.0005
     14 C          63.8140   93.7914   -1.0681 C.ar    1  UNL1        0.0181
     15 C          63.6299   93.6402   -2.5491 C.ar    1  UNL1        0.0986
     16 N          62.2520   93.4873   -3.1218 N.ar    1  UNL1       -0.2423
     17 C          61.0582   93.4855   -2.2135 C.ar    1  UNL1        0.0986
     18 C          61.2423   93.6366   -0.7326 C.ar    1  UNL1        0.0181
     19 C          59.1122   88.6061    7.6196 C.ar    1  UNL1        0.1453
     20 C          59.2033   87.1100    7.5644 C.ar    1  UNL1        0.0381
     21 C          60.0436   86.3723    8.5642 C.ar    1  UNL1        0.0114
     22 C          60.7930   87.1309    9.6192 C.ar    1  UNL1        0.0419
     23 C          60.7020   88.6271    9.6744 C.ar    1  UNL1        0.0114
     24 C          59.8616   89.3647    8.6745 C.ar    1  UNL1        0.0381
     25 C          61.6334   86.3932   10.6190 C.1     1  UNL1       -0.0621
     26 C          62.4738   85.6556   11.6187 C.1     1  UNL1       -0.0597
     27 C          63.7607   84.1903   13.5325 C.3     1  UNL1        0.1561
     28 O          63.4274   86.4275   13.1065 O.3     1  UNL1       -0.3739
     29 C          63.3391   83.0988   12.8466 C.3     1  UNL1        0.1120
     30 N          63.1064   82.4075   12.4646 N.3     1  UNL1       -0.2699
     31 C          63.9249   82.2404   13.7105 C.3     1  UNL1        0.0723
     32 C          64.3911   83.4475   14.4690 C.3     1  UNL1        0.0207
     33 C          64.0389   84.8217   13.9817 C.3     1  UNL1        0.0404
     34 C          63.2204   84.9888   12.7359 C.3     1  UNL1        0.0207
     35 C          62.7542   83.7817   11.9773 C.3     1  UNL1        0.0723
     36 H          62.8978   86.5277   12.3000 H       1  UNL1        0.2115
@<TRIPOS>BOND
     1     8     9    2
     2     9    10   am
     3    10    12    1
     4    12    13    1
     5    13    14   ar
     6    14    15   ar
     7    15    16   ar
     8    16    17   ar
     9    17    18   ar
    10     9     2    1
    11     2     3   ar
    12     3     4   ar
    13     4     5   ar
    14     5     1    1
    15     1    19    1
    16    19    20   ar
    17    20    21   ar
    18    21    22   ar
    19    22    25    1
    20    25    26    3
    21    26    27    1
    22    27    28    1
    23    27    29    1
    24    29    30    1
    25    30    31    1
    26    31    32    1
    27    32    33    1
    28    33    34    1
    29    34    35    1
    30    22    23   ar
    31    23    24   ar
    32     5     6   ar
    33     6     7   ar
    34    18    13   ar
    35     7     2   ar
    36    24    19   ar
    37    33    27    1
    38    35    30    1
    39    10    11    1
    40    28    36    1
@<TRIPOS>MOLECULE
*****
 36 40 0 0 0
SMALL
GASTEIGER

@<TRIPOS>ATOM
      1 O          58.3511   89.6889    6.8688 O.3     1  UNL1       -0.4535
      2 C          60.1414   92.2210    3.6080 C.ar    1  UNL1        0.0536
      3 C          61.0168   91.3092    4.4156 C.ar    1  UNL1        0.0076
      4 C          60.4200   90.4652    5.5026 C.ar    1  UNL1        0.0376
      5 C          58.9478   90.5329    5.7819 C.ar    1  UNL1        0.1453
      6 C          58.0724   91.4447    4.9742 C.ar    1  UNL1        0.0376
      7 C          58.6692   92.2887    3.8872 C.ar    1  UNL1        0.0076
      8 O          60.2170   94.4497    2.2750 O.2     1  UNL1       -0.2701
      9 C          60.7382   93.0650    2.5210 C.2     1  UNL1        0.2461
     10 N          61.8564   92.5241    1.6801 N.am    1  UNL1       -0.2969
     11 H          62.1985   91.6152    1.8416 H       1  UNL1        0.1501
     12 C          62.4533   93.3681    0.5931 C.3     1  UNL1        0.1167
     13 C          63.3854   94.4905    0.9415 C.ar    1  UNL1        0.0005
     14 C          64.1383   94.4651    2.2386 C.ar    1  UNL1        0.0181
     15 C          65.0704   95.5875    2.5869 C.ar    1  UNL1        0.0986
     16 N          65.2497   96.7353    1.6380 N.ar    1  UNL1       -0.2423
     17 C          64.4969   96.7607    0.3408 C.ar    1  UNL1        0.0986
     18 C          63.5647   95.6383   -0.0075 C.ar    1  UNL1        0.0181
     19 C          59.2077   88.7066    7.6115 C.ar    1  UNL1        0.1453
     20 C          59.1234   87.2441    7.2893 C.ar    1  UNL1        0.0381
     21 C          59.9800   86.2619    8.0319 C.ar    1  UNL1        0.0114
     22 C          60.9209   86.7423    9.0969 C.ar    1  UNL1        0.0419
     23 C          61.0051   88.2048    9.4191 C.ar    1  UNL1        0.0114
     24 C          60.1485   89.1870    8.6764 C.ar    1  UNL1        0.0381
     25 C          61.7774   85.7601    9.8395 C.1     1  UNL1       -0.0621
     26 C          62.6341   84.7779   10.5820 C.1     1  UNL1       -0.0597
     27 C          63.9591   82.9212   12.0862 C.3     1  UNL1        0.1561
     28 O          63.9490   83.5577    9.8743 O.3     1  UNL1       -0.3739
     29 C          63.2432   83.3977   13.1350 C.3     1  UNL1        0.1120
     30 N          62.8321   83.6533   13.8010 N.3     1  UNL1       -0.2699
     31 C          63.8120   82.5366   14.0075 C.3     1  UNL1        0.0723
     32 C          64.6037   82.0095   12.8476 C.3     1  UNL1        0.0207
     33 C          64.4155   82.5993   11.4813 C.3     1  UNL1        0.0404
     34 C          63.4357   83.7160   11.2748 C.3     1  UNL1        0.0207
     35 C          62.6440   84.2431   12.4347 C.3     1  UNL1        0.0723
     36 H          63.3136   84.2797    9.7485 H       1  UNL1        0.2115
@<TRIPOS>BOND
     1     8     9    2
     2     9    10   am
     3    10    12    1
     4    12    13    1
     5    13    14   ar
     6    14    15   ar
     7    15    16   ar
     8    16    17   ar
     9    17    18   ar
    10     9     2    1
    11     2     3   ar
    12     3     4   ar
    13     4     5   ar
    14     5     1    1
    15     1    19    1
    16    19    20   ar
    17    20    21   ar
    18    21    22   ar
    19    22    25    1
    20    25    26    3
    21    26    27    1
    22    27    28    1
    23    27    29    1
    24    29    30    1
    25    30    31    1
    26    31    32    1
    27    32    33    1
    28    33    34    1
    29    34    35    1
    30    22    23   ar
    31    23    24   ar
    32     5     6   ar
    33     6     7   ar
    34    18    13   ar
    35     7     2   ar
    36    24    19   ar
    37    33    27    1
    38    35    30    1
    39    10    11    1
    40    28    36    1
@<TRIPOS>MOLECULE
*****
 36 40 0 0 0
SMALL
GASTEIGER

@<TRIPOS>ATOM
      1 O          63.6062   89.4620   16.5062 O.3     1  UNL1       -0.4535
      2 C          63.3885   85.0753   15.5267 C.ar    1  UNL1        0.0536
      3 C          64.1754   86.0019   14.6479 C.ar    1  UNL1        0.0076
      4 C          64.2480   87.4641   14.9744 C.ar    1  UNL1        0.0376
      5 C          63.5337   87.9998   16.1797 C.ar    1  UNL1        0.1453
      6 C          62.7467   87.0732   17.0585 C.ar    1  UNL1        0.0376
      7 C          62.6742   85.6110   16.7320 C.ar    1  UNL1        0.0076
      8 O          64.4848   82.7201   15.4941 O.2     1  UNL1       -0.2701
      9 C          63.3160   83.6130   15.2002 C.2     1  UNL1        0.2461
     10 N          62.0746   83.0439   14.5798 N.am    1  UNL1       -0.2969
     11 H          61.3075   83.6300   14.3869 H       1  UNL1        0.1501
     12 C          62.0020   81.5816   14.2532 C.3     1  UNL1        0.1167
     13 C          62.4047   81.0962   12.8923 C.ar    1  UNL1        0.0005
     14 C          62.3751   79.6294   12.5799 C.ar    1  UNL1        0.0181
     15 C          62.7778   79.1440   11.2190 C.ar    1  UNL1        0.0986
     16 N          63.2102   80.1256   10.1703 N.ar    1  UNL1       -0.2423
     17 C          63.2398   81.5924   10.4826 C.ar    1  UNL1        0.0986
     18 C          62.8371   82.0778   11.8436 C.ar    1  UNL1        0.0181
     19 C          64.1289   90.4327   15.4889 C.ar    1  UNL1        0.1453
     20 C          65.1767   91.4335   15.8763 C.ar    1  UNL1        0.0381
     21 C          65.6994   92.4041   14.8592 C.ar    1  UNL1        0.0114
     22 C          65.1741   92.3738   13.4544 C.ar    1  UNL1        0.0419
     23 C          64.1263   91.3729   13.0669 C.ar    1  UNL1        0.0114
     24 C          63.6036   90.4023   14.0842 C.ar    1  UNL1        0.0381
     25 C          65.6968   93.3444   12.4372 C.1     1  UNL1       -0.0621
     26 C          66.2196   94.3151   11.4201 C.1     1  UNL1       -0.0597
     27 C          66.9351   96.0261    9.4136 C.3     1  UNL1        0.1561
     28 O          65.9917   96.2281   11.5034 O.3     1  UNL1       -0.3739
     29 C          67.3421   94.9198    8.7428 C.3     1  UNL1        0.1120
     30 N          67.6029   94.2782    8.2975 N.3     1  UNL1       -0.2699
     31 C          67.7459   95.6321    7.6677 C.3     1  UNL1        0.0723
     32 C          67.2959   96.8556    8.4096 C.3     1  UNL1        0.0207
     33 C          66.7029   96.7253    9.7812 C.3     1  UNL1        0.0404
     34 C          66.5599   95.3714   10.4110 C.3     1  UNL1        0.0207
     35 C          67.0099   94.1479    9.6691 C.3     1  UNL1        0.0723
     36 H          65.9024   95.3493   11.9041 H       1  UNL1        0.2115
@<TRIPOS>BOND
     1     8     9    2
     2     9    10   am
     3    10    12    1
     4    12    13    1
     5    13    14   ar
     6    14    15   ar
     7    15    16   ar
     8    16    17   ar
     9    17    18   ar
    10     9     2    1
    11     2     3   ar
    12     3     4   ar
    13     4     5   ar
    14     5     1    1
    15     1    19    1
    16    19    20   ar
    17    20    21   ar
    18    21    22   ar
    19    22    25    1
    20    25    26    3
    21    26    27    1
    22    27    28    1
    23    27    29    1
    24    29    30    1
    25    30    31    1
    26    31    32    1
    27    32    33    1
    28    33    34    1
    29    34    35    1
    30    22    23   ar
    31    23    24   ar
    32     5     6   ar
    33     6     7   ar
    34    18    13   ar
    35     7     2   ar
    36    24    19   ar
    37    33    27    1
    38    35    30    1
    39    10    11    1
    40    28    36    1
@<TRIPOS>MOLECULE
*****
 36 40 0 0 0
SMALL
GASTEIGER

@<TRIPOS>ATOM
      1 O          59.3059   93.4530    2.9714 O.3     1  UNL1       -0.4535
      2 C          59.4990   90.1752    6.0485 C.ar    1  UNL1        0.0536
      3 C          58.1808   90.8007    5.7007 C.ar    1  UNL1        0.0076
      4 C          58.1165   91.8933    4.6750 C.ar    1  UNL1        0.0376
      5 C          59.3703   92.3604    3.9970 C.ar    1  UNL1        0.1453
      6 C          60.6886   91.7349    4.3449 C.ar    1  UNL1        0.0376
      7 C          60.7529   90.6423    5.3706 C.ar    1  UNL1        0.0076
      8 O          60.1103   89.3685    8.4413 O.2     1  UNL1       -0.2701
      9 C          59.5634   89.0826    7.0742 C.2     1  UNL1        0.2461
     10 N          59.0807   87.7041    6.7327 N.am    1  UNL1       -0.2969
     11 H          58.7217   87.5164    5.8354 H       1  UNL1        0.1501
     12 C          59.1450   86.6114    7.7584 C.3     1  UNL1        0.1167
     13 C          60.4745   86.0820    8.2080 C.ar    1  UNL1        0.0005
     14 C          60.8953   86.2298    9.6401 C.ar    1  UNL1        0.0181
     15 C          62.2248   85.7004   10.0897 C.ar    1  UNL1        0.0986
     16 N          63.1336   85.0233    9.1070 N.ar    1  UNL1       -0.2423
     17 C          62.7128   84.8755    7.6748 C.ar    1  UNL1        0.0986
     18 C          61.3832   85.4049    7.2253 C.ar    1  UNL1        0.0181
     19 C          60.1128   93.3473    1.7112 C.ar    1  UNL1        0.1453
     20 C          59.4948   92.7733    0.4709 C.ar    1  UNL1        0.0381
     21 C          60.3016   92.6675   -0.7892 C.ar    1  UNL1        0.0114
     22 C          61.7265   93.1358   -0.8089 C.ar    1  UNL1        0.0419
     23 C          62.3446   93.7098    0.4314 C.ar    1  UNL1        0.0114
     24 C          61.5377   93.8155    1.6916 C.ar    1  UNL1        0.0381
     25 C          62.5333   93.0300   -2.0690 C.1     1  UNL1       -0.0621
     26 C          63.3402   92.9243   -3.3290 C.1     1  UNL1       -0.0597
     27 C          64.5831   92.5975   -5.7403 C.3     1  UNL1        0.1561
     28 O          65.0041   91.9782   -3.5638 O.3     1  UNL1       -0.3739
     29 C          63.5474   93.3001   -6.2632 C.3     1  UNL1        0.1120
     30 N          62.9403   93.7216   -6.6261 N.3     1  UNL1       -0.2699
     31 C          64.0366   93.2239   -7.5207 C.3     1  UNL1        0.0723
     32 C          65.1819   92.4469   -6.9424 C.3     1  UNL1        0.0207
     33 C          65.2309   92.1676   -5.4694 C.3     1  UNL1        0.0404
     34 C          64.1346   92.6652   -4.5748 C.3     1  UNL1        0.0207
     35 C          62.9893   93.4422   -5.1531 C.3     1  UNL1        0.0723
     36 H          64.2915   92.3032   -2.9916 H       1  UNL1        0.2115
@<TRIPOS>BOND
     1     8     9    2
     2     9    10   am
     3    10    12    1
     4    12    13    1
     5    13    14   ar
     6    14    15   ar
     7    15    16   ar
     8    16    17   ar
     9    17    18   ar
    10     9     2    1
    11     2     3   ar
    12     3     4   ar
    13     4     5   ar
    14     5     1    1
    15     1    19    1
    16    19    20   ar
    17    20    21   ar
    18    21    22   ar
    19    22    25    1
    20    25    26    3
    21    26    27    1
    22    27    28    1
    23    27    29    1
    24    29    30    1
    25    30    31    1
    26    31    32    1
    27    32    33    1
    28    33    34    1
    29    34    35    1
    30    22    23   ar
    31    23    24   ar
    32     5     6   ar
    33     6     7   ar
    34    18    13   ar
    35     7     2   ar
    36    24    19   ar
    37    33    27    1
    38    35    30    1
    39    10    11    1
    40    28    36    1
@<TRIPOS>MOLECULE
*****
 36 40 0 0 0
SMALL
GASTEIGER

@<TRIPOS>ATOM
      1 O          64.1281   90.4065   15.9856 O.3     1  UNL1       -0.4535
      2 C          65.8953   93.3205   13.0470 C.ar    1  UNL1        0.0536
      3 C          66.3175   93.3572   14.4859 C.ar    1  UNL1        0.0076
      4 C          65.7285   92.3859   15.4654 C.ar    1  UNL1        0.0376
      5 C          64.7171   91.3778   15.0061 C.ar    1  UNL1        0.1453
      6 C          64.2949   91.3411   13.5671 C.ar    1  UNL1        0.0376
      7 C          64.8840   92.3125   12.5876 C.ar    1  UNL1        0.0076
      8 O          67.3420   93.7948   10.9418 O.2     1  UNL1       -0.2701
      9 C          66.4845   94.2919   12.0675 C.2     1  UNL1        0.2461
     10 N          66.2159   95.7604   12.2138 N.am    1  UNL1       -0.2969
     11 H          65.6530   96.0866   12.9527 H       1  UNL1        0.1501
     12 C          66.8050   96.7318   11.2343 C.3     1  UNL1        0.1167
     13 C          66.2995   96.7731    9.8227 C.ar    1  UNL1        0.0005
     14 C          64.8238   96.7932    9.5546 C.ar    1  UNL1        0.0181
     15 C          64.3184   96.8344    8.1430 C.ar    1  UNL1        0.0986
     16 N          65.2887   96.8556    6.9993 N.ar    1  UNL1       -0.2423
     17 C          66.7645   96.8355    7.2673 C.ar    1  UNL1        0.0986
     18 C          67.2699   96.7943    8.6790 C.ar    1  UNL1        0.0181
     19 C          63.9373   88.9707   15.5956 C.ar    1  UNL1        0.1453
     20 C          63.3055   88.0096   16.5584 C.ar    1  UNL1        0.0381
     21 C          63.1147   86.5738   16.1685 C.ar    1  UNL1        0.0114
     22 C          63.5558   86.0991   14.8156 C.ar    1  UNL1        0.0419
     23 C          64.1876   87.0602   13.8528 C.ar    1  UNL1        0.0114
     24 C          64.3784   88.4960   14.2428 C.ar    1  UNL1        0.0381
     25 C          63.3650   84.6633   14.4257 C.1     1  UNL1       -0.0621
     26 C          63.1744   83.2275   14.0359 C.1     1  UNL1       -0.0597
     27 C          62.6450   80.7069   13.1238 C.3     1  UNL1        0.1561
     28 O          62.6126   81.7690   15.1655 O.3     1  UNL1       -0.3739
     29 C          62.9619   81.1864   11.8952 C.3     1  UNL1        0.1120
     30 N          63.1449   81.4316   11.1308 N.3     1  UNL1       -0.2699
     31 C          62.7384   79.9970   11.2940 C.3     1  UNL1        0.0723
     32 C          62.3880   79.4666   12.6526 C.3     1  UNL1        0.0207
     33 C          62.4441   80.3709   13.8481 C.3     1  UNL1        0.0404
     34 C          62.8505   81.8055   13.6849 C.3     1  UNL1        0.0207
     35 C          63.2009   82.3358   12.3263 C.3     1  UNL1        0.0723
     36 H          62.8763   82.6956   15.0522 H       1  UNL1        0.2115
@<TRIPOS>BOND
     1     8     9    2
     2     9    10   am
     3    10    12    1
     4    12    13    1
     5    13    14   ar
     6    14    15   ar
     7    15    16   ar
     8    16    17   ar
     9    17    18   ar
    10     9     2    1
    11     2     3   ar
    12     3     4   ar
    13     4     5   ar
    14     5     1    1
    15     1    19    1
    16    19    20   ar
    17    20    21   ar
    18    21    22   ar
    19    22    25    1
    20    25    26    3
    21    26    27    1
    22    27    28    1
    23    27    29    1
    24    29    30    1
    25    30    31    1
    26    31    32    1
    27    32    33    1
    28    33    34    1
    29    34    35    1
    30    22    23   ar
    31    23    24   ar
    32     5     6   ar
    33     6     7   ar
    34    18    13   ar
    35     7     2   ar
    36    24    19   ar
    37    33    27    1
    38    35    30    1
    39    10    11    1
    40    28    36    1
@<TRIPOS>MOLECULE
*****
 36 40 0 0 0
SMALL
GASTEIGER

@<TRIPOS>ATOM
      1 O          59.4569   89.1760    7.4236 O.3     1  UNL1       -0.4535
      2 C          59.5176   91.9649    3.8926 C.ar    1  UNL1        0.0536
      3 C          58.2188   91.6386    4.5684 C.ar    1  UNL1        0.0076
      4 C          58.1986   90.7090    5.7454 C.ar    1  UNL1        0.0376
      5 C          59.4771   90.1056    6.2467 C.ar    1  UNL1        0.1453
      6 C          60.7760   90.4319    5.5708 C.ar    1  UNL1        0.0376
      7 C          60.7962   91.3616    4.3938 C.ar    1  UNL1        0.0076
      8 O          59.8916   94.3395    2.9071 O.2     1  UNL1       -0.2701
      9 C          59.5378   92.8946    2.7156 C.2     1  UNL1        0.2461
     10 N          59.2042   92.3791    1.3470 N.am    1  UNL1       -0.2969
     11 H          58.9720   91.4307    1.2213 H       1  UNL1        0.1501
     12 C          59.2244   93.3087    0.1699 C.3     1  UNL1        0.1167
     13 C          57.9604   93.5858   -0.5887 C.ar    1  UNL1        0.0005
     14 C          57.1601   92.4498   -1.1534 C.ar    1  UNL1        0.0181
     15 C          55.8961   92.7269   -1.9120 C.ar    1  UNL1        0.0986
     16 N          55.4323   94.1402   -2.1058 N.ar    1  UNL1       -0.2423
     17 C          56.2325   95.2763   -1.5410 C.ar    1  UNL1        0.0986
     18 C          57.4966   94.9991   -0.7825 C.ar    1  UNL1        0.0181
     19 C          60.2651   89.4960    8.6461 C.ar    1  UNL1        0.1453
     20 C          59.7405   90.4712    9.6579 C.ar    1  UNL1        0.0381
     21 C          60.5486   90.7913   10.8804 C.ar    1  UNL1        0.0114
     22 C          61.8814   90.1360   11.0911 C.ar    1  UNL1        0.0419
     23 C          62.4060   89.1608   10.0793 C.ar    1  UNL1        0.0114
     24 C          61.5978   88.8408    8.8568 C.ar    1  UNL1        0.0381
     25 C          62.6895   90.4560   12.3136 C.1     1  UNL1       -0.0621
     26 C          63.4976   90.7760   13.5361 C.1     1  UNL1       -0.0597
     27 C          64.9804   91.6298   15.6664 C.3     1  UNL1        0.1561
     28 O          62.9514   90.5827   15.3754 O.3     1  UNL1       -0.3739
     29 C          65.8862   92.0488   14.7479 C.3     1  UNL1        0.1120
     30 N          66.4647   92.3196   14.2284 N.3     1  UNL1       -0.2699
     31 C          66.7306   92.5226   15.6906 C.3     1  UNL1        0.0723
     32 C          65.7289   92.0593   16.7064 C.3     1  UNL1        0.0207
     33 C          64.4613   91.3929   16.2599 C.3     1  UNL1        0.0404
     34 C          64.1955   91.1898   14.7977 C.3     1  UNL1        0.0207
     35 C          65.1972   91.6532   13.7820 C.3     1  UNL1        0.0723
     36 H          62.7864   90.4549   14.4281 H       1  UNL1        0.2115
@<TRIPOS>BOND
     1     8     9    2
     2     9    10   am
     3    10    12    1
     4    12    13    1
     5    13    14   ar
     6    14    15   ar
     7    15    16   ar
     8    16    17   ar
     9    17    18   ar
    10     9     2    1
    11     2     3   ar
    12     3     4   ar
    13     4     5   ar
    14     5     1    1
    15     1    19    1
    16    19    20   ar
    17    20    21   ar
    18    21    22   ar
    19    22    25    1
    20    25    26    3
    21    26    27    1
    22    27    28    1
    23    27    29    1
    24    29    30    1
    25    30    31    1
    26    31    32    1
    27    32    33    1
    28    33    34    1
    29    34    35    1
    30    22    23   ar
    31    23    24   ar
    32     5     6   ar
    33     6     7   ar
    34    18    13   ar
    35     7     2   ar
    36    24    19   ar
    37    33    27    1
    38    35    30    1
    39    10    11    1
    40    28    36    1
@<TRIPOS>MOLECULE
*****
 36 40 0 0 0
SMALL
GASTEIGER

@<TRIPOS>ATOM
      1 O          59.5516   89.2722    7.5948 O.3     1  UNL1       -0.4535
      2 C          59.5396   91.9430    3.9731 C.ar    1  UNL1        0.0536
      3 C          60.8281   91.3553    4.4673 C.ar    1  UNL1        0.0076
      4 C          60.8321   90.4651    5.6745 C.ar    1  UNL1        0.0376
      5 C          59.5476   90.1625    6.3876 C.ar    1  UNL1        0.1453
      6 C          58.2590   90.7502    5.8933 C.ar    1  UNL1        0.0376
      7 C          58.2550   91.6405    4.6860 C.ar    1  UNL1        0.0076
      8 O          59.8545   94.2920    2.9085 O.2     1  UNL1       -0.2701
      9 C          59.5356   92.8333    2.7658 C.2     1  UNL1        0.2461
     10 N          59.2128   92.2648    1.4158 N.am    1  UNL1       -0.2969
     11 H          59.0036   91.3073    1.3222 H       1  UNL1        0.1501
     12 C          59.2089   93.1550    0.2085 C.3     1  UNL1        0.1167
     13 C          60.4662   93.3457   -0.5868 C.ar    1  UNL1        0.0005
     14 C          60.3914   93.5498   -2.0709 C.ar    1  UNL1        0.0181
     15 C          61.6488   93.7406   -2.8662 C.ar    1  UNL1        0.0986
     16 N          62.9812   93.7272   -2.1773 N.ar    1  UNL1       -0.2423
     17 C          63.0561   93.5230   -0.6931 C.ar    1  UNL1        0.0986
     18 C          61.7986   93.3323    0.1021 C.ar    1  UNL1        0.0181
     19 C          60.4119   89.6132    8.7753 C.ar    1  UNL1        0.1453
     20 C          59.8387   90.3946    9.9203 C.ar    1  UNL1        0.0381
     21 C          60.6989   90.7356   11.1008 C.ar    1  UNL1        0.0114
     22 C          62.1325   90.2952   11.1364 C.ar    1  UNL1        0.0419
     23 C          62.7056   89.5139    9.9914 C.ar    1  UNL1        0.0114
     24 C          61.8453   89.1729    8.8109 C.ar    1  UNL1        0.0381
     25 C          62.9927   90.6362   12.3169 C.1     1  UNL1       -0.0621
     26 C          63.8528   90.9771   13.4975 C.1     1  UNL1       -0.0597
     27 C          65.5131   91.8238   15.4955 C.3     1  UNL1        0.1561
     28 O          63.2610   91.3984   15.2838 O.3     1  UNL1       -0.3739
     29 C          66.5106   91.7208   14.5823 C.3     1  UNL1        0.1120
     30 N          67.1483   91.6738   14.0636 N.3     1  UNL1       -0.2699
     31 C          67.4541   92.1275   15.4602 C.3     1  UNL1        0.0723
     32 C          66.3510   92.2414   16.4702 C.3     1  UNL1        0.0207
     33 C          64.9421   91.9017   16.0835 C.3     1  UNL1        0.0404
     34 C          64.6362   91.4480   14.6869 C.3     1  UNL1        0.0207
     35 C          65.7394   91.3341   13.6769 C.3     1  UNL1        0.0723
     36 H          63.0709   91.1057   14.3788 H       1  UNL1        0.2115
@<TRIPOS>BOND
     1     8     9    2
     2     9    10   am
     3    10    12    1
     4    12    13    1
     5    13    14   ar
     6    14    15   ar
     7    15    16   ar
     8    16    17   ar
     9    17    18   ar
    10     9     2    1
    11     2     3   ar
    12     3     4   ar
    13     4     5   ar
    14     5     1    1
    15     1    19    1
    16    19    20   ar
    17    20    21   ar
    18    21    22   ar
    19    22    25    1
    20    25    26    3
    21    26    27    1
    22    27    28    1
    23    27    29    1
    24    29    30    1
    25    30    31    1
    26    31    32    1
    27    32    33    1
    28    33    34    1
    29    34    35    1
    30    22    23   ar
    31    23    24   ar
    32     5     6   ar
    33     6     7   ar
    34    18    13   ar
    35     7     2   ar
    36    24    19   ar
    37    33    27    1
    38    35    30    1
    39    10    11    1
    40    28    36    1
