@<TRIPOS>MOLECULE
*****
 28 31 0 0 0
SMALL
GASTEIGER

@<TRIPOS>ATOM
      1 C          63.0886   90.5996   10.8471 C.3     1  UNL1        0.1747
      2 C          63.4768   90.4470   12.2879 C.3     1  UNL1        0.0406
      3 C          64.5607   91.3066   12.8677 C.3     1  UNL1        0.0403
      4 C          64.9490   91.1540   14.3085 C.3     1  UNL1        0.0569
      5 C          64.2533   90.1417   15.1696 C.3     1  UNL1        0.0122
      6 S          66.0329   92.0136   14.8883 S.3     1  UNL1       -0.0816
      7 C          66.7286   93.0258   14.0272 C.2     1  UNL1        0.1482
      8 N          67.8126   93.8855   14.6071 N.pl3   1  UNL1       -0.3380
      9 N          66.3403   93.1785   12.5864 N.2     1  UNL1       -0.2484
     10 C          65.2564   92.3188   12.0066 C.3     1  UNL1        0.1352
     11 C          64.8681   92.4715   10.5658 C.3     1  UNL1        0.1691
     12 O          63.7842   91.6119    9.9861 O.3     1  UNL1       -0.3462
     13 H          68.0674   93.7853   15.5527 H       1  UNL1        0.1442
     14 H          68.2692   94.5499   14.0419 H       1  UNL1        0.1442
     15 C          65.9521   93.3311   11.1456 C.ar    1  UNL1        0.0278
     16 C          65.4357   94.7377   11.0755 C.ar    1  UNL1        0.0021
     17 C          66.1314   95.7500   10.2145 C.ar    1  UNL1        0.0295
     18 C          67.3434   95.3556    9.4235 C.ar    1  UNL1        0.1424
     19 F          68.0391   96.3678    8.5624 F       1  UNL1       -0.2041
     20 C          67.8596   93.9490    9.4936 C.ar    1  UNL1        0.0590
     21 C          67.1640   92.9367   10.3546 C.ar    1  UNL1        0.1402
     22 F          67.6802   91.5302   10.4247 F       1  UNL1       -0.2044
     23 C          60.4885   86.4559    8.8595 C.3     1  UNL1        0.0557
     24 C          60.8095   87.8353    9.3537 C.ar    1  UNL1        0.1008
     25 C          62.1326   88.2933    9.8919 C.ar    1  UNL1        0.0561
     26 C          62.0046   89.7400   10.2673 C.ar    1  UNL1        0.1809
     27 O          60.6024   90.1760    9.9611 O.2     1  UNL1       -0.3556
     28 N          59.8638   88.9989    9.3965 N.ar    1  UNL1       -0.0817
@<TRIPOS>BOND
     1    23    24    1
     2    24    25   ar
     3    25    26   ar
     4     1    26    1
     5     1     2    1
     6     3     2    1
     7     3     4    1
     8     4     5    1
     9     4     6    1
    10     6     7    1
    11     7     8    1
    12     7     9    2
    13     9    10    1
    14    10    15    1
    15    15    16   ar
    16    16    17   ar
    17    17    18   ar
    18    18    19    1
    19    18    20   ar
    20    20    21   ar
    21    21    22    1
    22    10    11    1
    23    11    12    1
    24    26    27   ar
    25    27    28   ar
    26    28    24   ar
    27    12     1    1
    28    10     3    1
    29    21    15   ar
    30     8    13    1
    31     8    14    1
@<TRIPOS>MOLECULE
*****
 28 31 0 0 0
SMALL
GASTEIGER

@<TRIPOS>ATOM
      1 C          63.0300   88.9264   12.8026 C.3     1  UNL1        0.1747
      2 C          62.0090   89.4015   11.8118 C.3     1  UNL1        0.0406
      3 C          61.4671   88.4557   10.7814 C.3     1  UNL1        0.0403
      4 C          60.4461   88.9308    9.7904 C.3     1  UNL1        0.0569
      5 C          59.9671   90.3517    9.8299 C.3     1  UNL1        0.0122
      6 S          59.9042   87.9850    8.7600 S.3     1  UNL1       -0.0816
      7 C          60.3832   86.5641    8.7205 C.2     1  UNL1        0.1482
      8 N          59.8413   85.6183    7.6900 N.pl3   1  UNL1       -0.3380
      9 N          61.4042   86.0890    9.7113 N.2     1  UNL1       -0.2484
     10 C          61.9462   87.0348   10.7418 C.3     1  UNL1        0.1352
     11 C          62.9671   86.5597   11.7327 C.3     1  UNL1        0.1691
     12 O          63.5090   87.5055   12.7631 O.3     1  UNL1       -0.3462
     13 H          59.1712   85.9302    7.0396 H       1  UNL1        0.1442
     14 H          60.1557   84.6858    7.6640 H       1  UNL1        0.1442
     15 C          62.4252   85.6139   10.7023 C.ar    1  UNL1        0.0278
     16 C          62.1031   84.6821   11.8328 C.ar    1  UNL1        0.0021
     17 C          62.5821   83.2612   11.7933 C.ar    1  UNL1        0.0295
     18 C          63.3833   82.7721   10.6232 C.ar    1  UNL1        0.1424
     19 F          63.8623   81.3512   10.5837 F       1  UNL1       -0.2041
     20 C          63.7053   83.7039    9.4927 C.ar    1  UNL1        0.0590
     21 C          63.2263   85.1248    9.5323 C.ar    1  UNL1        0.1402
     22 F          63.5483   86.0566    8.4018 F       1  UNL1       -0.2044
     23 C          66.2101   92.2648   15.3762 C.3     1  UNL1        0.0557
     24 C          65.0337   91.4067   15.0160 C.ar    1  UNL1        0.1008
     25 C          64.9062   90.5561   13.7871 C.ar    1  UNL1        0.0561
     26 C          63.5719   89.8722   13.8331 C.ar    1  UNL1        0.1809
     27 O          62.8748   90.3001   15.0904 O.2     1  UNL1       -0.3556
     28 N          63.7782   91.2485   15.8215 N.ar    1  UNL1       -0.0817
@<TRIPOS>BOND
     1    23    24    1
     2    24    25   ar
     3    25    26   ar
     4     1    26    1
     5     1     2    1
     6     3     2    1
     7     3     4    1
     8     4     5    1
     9     4     6    1
    10     6     7    1
    11     7     8    1
    12     7     9    2
    13     9    10    1
    14    10    15    1
    15    15    16   ar
    16    16    17   ar
    17    17    18   ar
    18    18    19    1
    19    18    20   ar
    20    20    21   ar
    21    21    22    1
    22    10    11    1
    23    11    12    1
    24    26    27   ar
    25    27    28   ar
    26    28    24   ar
    27    12     1    1
    28    10     3    1
    29    21    15   ar
    30     8    13    1
    31     8    14    1
@<TRIPOS>MOLECULE
*****
 28 31 0 0 0
SMALL
GASTEIGER

@<TRIPOS>ATOM
      1 C          61.2896   86.7792   10.2874 C.3     1  UNL1        0.1747
      2 C          62.0067   87.7866   11.1364 C.3     1  UNL1        0.0406
      3 C          62.8602   87.3300   12.2822 C.3     1  UNL1        0.0403
      4 C          63.5774   88.3375   13.1313 C.3     1  UNL1        0.0569
      5 C          63.4409   89.8015   12.8345 C.3     1  UNL1        0.0122
      6 S          64.4309   87.8809   14.2771 S.3     1  UNL1       -0.0816
      7 C          64.5674   86.4169   14.5740 C.2     1  UNL1        0.1482
      8 N          65.4209   85.9604   15.7199 N.pl3   1  UNL1       -0.3380
      9 N          63.8503   85.4095   13.7250 N.2     1  UNL1       -0.2484
     10 C          62.9967   85.8660   12.5791 C.3     1  UNL1        0.1352
     11 C          62.2796   84.8586   11.7300 C.3     1  UNL1        0.1691
     12 O          61.4261   85.3152   10.5842 O.3     1  UNL1       -0.3462
     13 H          65.8916   86.6216   16.2771 H       1  UNL1        0.1442
     14 H          65.5105   84.9995   15.9147 H       1  UNL1        0.1442
     15 C          63.1331   84.4021   12.8759 C.ar    1  UNL1        0.0278
     16 C          64.0408   83.5488   12.0402 C.ar    1  UNL1        0.0021
     17 C          64.1772   82.0848   12.3370 C.ar    1  UNL1        0.0295
     18 C          63.4061   81.4741   13.4695 C.ar    1  UNL1        0.1424
     19 F          63.5425   80.0101   13.7663 F       1  UNL1       -0.2041
     20 C          62.4985   82.3273   14.3051 C.ar    1  UNL1        0.0590
     21 C          62.3620   83.7913   14.0083 C.ar    1  UNL1        0.1402
     22 F          61.4545   84.6446   14.8438 F       1  UNL1       -0.2044
     23 C          59.1413   89.7761    6.5079 C.3     1  UNL1        0.0557
     24 C          59.4486   88.6133    7.4042 C.ar    1  UNL1        0.1008
     25 C          60.4618   88.5962    8.5101 C.ar    1  UNL1        0.0561
     26 C          60.4360   87.2357    9.1415 C.ar    1  UNL1        0.1809
     27 O          59.4068   86.4121    8.4258 O.2     1  UNL1       -0.3556
     28 N          58.7965   87.2634    7.3521 N.ar    1  UNL1       -0.0817
@<TRIPOS>BOND
     1    23    24    1
     2    24    25   ar
     3    25    26   ar
     4     1    26    1
     5     1     2    1
     6     3     2    1
     7     3     4    1
     8     4     5    1
     9     4     6    1
    10     6     7    1
    11     7     8    1
    12     7     9    2
    13     9    10    1
    14    10    15    1
    15    15    16   ar
    16    16    17   ar
    17    17    18   ar
    18    18    19    1
    19    18    20   ar
    20    20    21   ar
    21    21    22    1
    22    10    11    1
    23    11    12    1
    24    26    27   ar
    25    27    28   ar
    26    28    24   ar
    27    12     1    1
    28    10     3    1
    29    21    15   ar
    30     8    13    1
    31     8    14    1
@<TRIPOS>MOLECULE
*****
 28 31 0 0 0
SMALL
GASTEIGER

@<TRIPOS>ATOM
      1 C          63.6770   88.3352   13.5673 C.3     1  UNL1        0.1747
      2 C          63.9403   87.0206   14.2399 C.3     1  UNL1        0.0406
      3 C          63.6170   85.7381   13.5322 C.3     1  UNL1        0.0403
      4 C          63.8803   84.4234   14.2048 C.3     1  UNL1        0.0569
      5 C          64.4667   84.3912   15.5850 C.3     1  UNL1        0.0122
      6 S          63.5570   83.1410   13.4971 S.3     1  UNL1       -0.0816
      7 C          62.9706   83.1732   12.1169 C.2     1  UNL1        0.1482
      8 N          62.6473   81.8906   11.4093 N.pl3   1  UNL1       -0.3380
      9 N          62.7073   84.4878   11.4443 N.2     1  UNL1       -0.2484
     10 C          63.0306   85.7703   12.1520 C.3     1  UNL1        0.1352
     11 C          62.7674   87.0850   11.4794 C.3     1  UNL1        0.1691
     12 O          63.0906   88.3674   12.1871 O.3     1  UNL1       -0.3462
     13 H          62.8201   81.0278   11.8507 H       1  UNL1        0.1442
     14 H          62.2624   81.9117   10.5034 H       1  UNL1        0.1442
     15 C          62.4441   85.8025   10.7718 C.ar    1  UNL1        0.0278
     16 C          63.2208   85.2493    9.6138 C.ar    1  UNL1        0.0021
     17 C          62.6343   85.2815    8.2335 C.ar    1  UNL1        0.0295
     18 C          61.2712   85.8669    8.0113 C.ar    1  UNL1        0.1424
     19 F          60.6848   85.8991    6.6311 F       1  UNL1       -0.2041
     20 C          60.4946   86.4201    9.1693 C.ar    1  UNL1        0.0590
     21 C          61.0811   86.3879   10.5495 C.ar    1  UNL1        0.1402
     22 F          60.3045   86.9410   11.7074 F       1  UNL1       -0.2044
     23 C          66.2474   92.6229   15.2673 C.3     1  UNL1        0.0557
     24 C          65.1818   91.5886   15.0563 C.ar    1  UNL1        0.1008
     25 C          65.2971   90.3672   14.1933 C.ar    1  UNL1        0.0561
     26 C          64.0003   89.6178   14.2749 C.ar    1  UNL1        0.1809
     27 O          63.0835   90.3760   15.1885 O.2     1  UNL1       -0.3556
     28 N          63.8137   91.5940   15.6714 N.ar    1  UNL1       -0.0817
@<TRIPOS>BOND
     1    23    24    1
     2    24    25   ar
     3    25    26   ar
     4     1    26    1
     5     1     2    1
     6     3     2    1
     7     3     4    1
     8     4     5    1
     9     4     6    1
    10     6     7    1
    11     7     8    1
    12     7     9    2
    13     9    10    1
    14    10    15    1
    15    15    16   ar
    16    16    17   ar
    17    17    18   ar
    18    18    19    1
    19    18    20   ar
    20    20    21   ar
    21    21    22    1
    22    10    11    1
    23    11    12    1
    24    26    27   ar
    25    27    28   ar
    26    28    24   ar
    27    12     1    1
    28    10     3    1
    29    21    15   ar
    30     8    13    1
    31     8    14    1
@<TRIPOS>MOLECULE
*****
 28 31 0 0 0
SMALL
GASTEIGER

@<TRIPOS>ATOM
      1 C          61.7944   86.9329   10.8024 C.3     1  UNL1        0.1747
      2 C          62.6046   87.3913   11.9785 C.3     1  UNL1        0.0406
      3 C          63.2840   86.3849   12.8592 C.3     1  UNL1        0.0403
      4 C          64.0942   86.8432   14.0355 C.3     1  UNL1        0.0569
      5 C          64.2250   88.3080   14.3310 C.3     1  UNL1        0.0122
      6 S          64.7735   85.8368   14.9161 S.3     1  UNL1       -0.0816
      7 C          64.6427   84.3720   14.6206 C.2     1  UNL1        0.1482
      8 N          65.3221   83.3656   15.5013 N.pl3   1  UNL1       -0.3380
      9 N          63.8325   83.9137   13.4444 N.2     1  UNL1       -0.2484
     10 C          63.1531   84.9201   12.5637 C.3     1  UNL1        0.1352
     11 C          62.3429   84.4617   11.3875 C.3     1  UNL1        0.1691
     12 O          61.6636   85.4682   10.5068 O.3     1  UNL1       -0.3462
     13 H          65.8539   83.6665   16.2733 H       1  UNL1        0.1442
     14 H          65.2362   82.4042   15.3073 H       1  UNL1        0.1442
     15 C          63.0223   83.4553   12.2681 C.ar    1  UNL1        0.0278
     16 C          62.1895   82.5819   13.1591 C.ar    1  UNL1        0.0021
     17 C          62.0587   81.1172   12.8635 C.ar    1  UNL1        0.0295
     18 C          62.7606   80.5258   11.6770 C.ar    1  UNL1        0.1424
     19 F          62.6298   79.0610   11.3815 F       1  UNL1       -0.2041
     20 C          63.5933   81.3992   10.7862 C.ar    1  UNL1        0.0590
     21 C          63.7242   82.8640   11.0817 C.ar    1  UNL1        0.1402
     22 F          64.5569   83.7374   10.1908 F       1  UNL1       -0.2044
     23 C          59.1669   89.1247    6.7807 C.3     1  UNL1        0.0557
     24 C          59.9073   88.9468    8.0731 C.ar    1  UNL1        0.1008
     25 C          60.4531   87.6552    8.6059 C.ar    1  UNL1        0.0561
     26 C          61.1150   87.9393    9.9216 C.ar    1  UNL1        0.1809
     27 O          60.9783   89.4065   10.2020 O.2     1  UNL1       -0.3556
     28 N          60.2318   90.0292    9.0596 N.ar    1  UNL1       -0.0817
@<TRIPOS>BOND
     1    23    24    1
     2    24    25   ar
     3    25    26   ar
     4     1    26    1
     5     1     2    1
     6     3     2    1
     7     3     4    1
     8     4     5    1
     9     4     6    1
    10     6     7    1
    11     7     8    1
    12     7     9    2
    13     9    10    1
    14    10    15    1
    15    15    16   ar
    16    16    17   ar
    17    17    18   ar
    18    18    19    1
    19    18    20   ar
    20    20    21   ar
    21    21    22    1
    22    10    11    1
    23    11    12    1
    24    26    27   ar
    25    27    28   ar
    26    28    24   ar
    27    12     1    1
    28    10     3    1
    29    21    15   ar
    30     8    13    1
    31     8    14    1
@<TRIPOS>MOLECULE
*****
 28 31 0 0 0
SMALL
GASTEIGER

@<TRIPOS>ATOM
      1 C          64.3227   88.5137   14.4023 C.3     1  UNL1        0.1747
      2 C          63.7505   89.0871   13.1398 C.3     1  UNL1        0.0406
      3 C          64.2453   90.4056   12.6234 C.3     1  UNL1        0.0403
      4 C          63.6731   90.9791   11.3609 C.3     1  UNL1        0.0569
      5 C          62.6062   90.2340   10.6149 C.3     1  UNL1        0.0122
      6 S          64.1679   92.2976   10.8445 S.3     1  UNL1       -0.0816
      7 C          65.2348   93.0426   11.5905 C.2     1  UNL1        0.1482
      8 N          65.7296   94.3612   11.0740 N.pl3   1  UNL1       -0.3380
      9 N          65.8070   92.4692   12.8529 N.2     1  UNL1       -0.2484
     10 C          65.3122   91.1507   13.3694 C.3     1  UNL1        0.1352
     11 C          65.8843   90.5773   14.6319 C.3     1  UNL1        0.1691
     12 O          65.3896   89.2588   15.1483 O.3     1  UNL1       -0.3462
     13 H          65.3540   94.7376   10.2454 H       1  UNL1        0.1442
     14 H          66.4298   94.8502   11.5636 H       1  UNL1        0.1442
     15 C          66.3791   91.8958   14.1154 C.ar    1  UNL1        0.0278
     16 C          66.0375   92.6315   15.3772 C.ar    1  UNL1        0.0021
     17 C          67.1044   93.3766   16.1232 C.ar    1  UNL1        0.0295
     18 C          68.5130   93.3859   15.6074 C.ar    1  UNL1        0.1424
     19 F          69.5799   94.1310   16.3534 F       1  UNL1       -0.2041
     20 C          68.8545   92.6502   14.3457 C.ar    1  UNL1        0.0590
     21 C          67.7876   91.9051   13.5997 C.ar    1  UNL1        0.1402
     22 F          68.1292   91.1694   12.3380 F       1  UNL1       -0.2044
     23 C          63.3284   83.3467   14.8438 C.3     1  UNL1        0.0557
     24 C          63.3709   84.8201   15.1217 C.ar    1  UNL1        0.1008
     25 C          64.0295   85.8603   14.2648 C.ar    1  UNL1        0.0561
     26 C          63.8279   87.1951   14.9188 C.ar    1  UNL1        0.1809
     27 O          63.0447   86.9799   16.1798 O.2     1  UNL1       -0.3556
     28 N          62.7623   85.5121   16.3053 N.ar    1  UNL1       -0.0817
@<TRIPOS>BOND
     1    23    24    1
     2    24    25   ar
     3    25    26   ar
     4     1    26    1
     5     1     2    1
     6     3     2    1
     7     3     4    1
     8     4     5    1
     9     4     6    1
    10     6     7    1
    11     7     8    1
    12     7     9    2
    13     9    10    1
    14    10    15    1
    15    15    16   ar
    16    16    17   ar
    17    17    18   ar
    18    18    19    1
    19    18    20   ar
    20    20    21   ar
    21    21    22    1
    22    10    11    1
    23    11    12    1
    24    26    27   ar
    25    27    28   ar
    26    28    24   ar
    27    12     1    1
    28    10     3    1
    29    21    15   ar
    30     8    13    1
    31     8    14    1
@<TRIPOS>MOLECULE
*****
 28 31 0 0 0
SMALL
GASTEIGER

@<TRIPOS>ATOM
      1 C          59.1681   93.5627   -1.2607 C.3     1  UNL1        0.1747
      2 C          59.7847   93.2729    0.0756 C.3     1  UNL1        0.0406
      3 C          61.2768   93.2727    0.2288 C.3     1  UNL1        0.0403
      4 C          61.8935   92.9828    1.5652 C.3     1  UNL1        0.0569
      5 C          61.0180   92.6932    2.7482 C.3     1  UNL1        0.0122
      6 S          63.3856   92.9826    1.7184 S.3     1  UNL1       -0.0816
      7 C          64.2611   93.2722    0.5354 C.2     1  UNL1        0.1482
      8 N          65.7533   93.2720    0.6886 N.pl3   1  UNL1       -0.3380
      9 N          63.6445   93.5621   -0.8009 N.2     1  UNL1       -0.2484
     10 C          62.1523   93.5623   -0.9542 C.3     1  UNL1        0.1352
     11 C          61.5357   93.8521   -2.2905 C.3     1  UNL1        0.1691
     12 O          60.0435   93.8524   -2.4438 O.3     1  UNL1       -0.3462
     13 H          66.1580   93.0818    1.5657 H       1  UNL1        0.1442
     14 H          66.3279   93.4621   -0.0878 H       1  UNL1        0.1442
     15 C          63.0278   93.8519   -2.1373 C.ar    1  UNL1        0.0278
     16 C          63.4063   92.7470   -3.0786 C.ar    1  UNL1        0.0021
     17 C          64.2818   93.0367   -4.2616 C.ar    1  UNL1        0.0295
     18 C          64.7788   94.4312   -4.5034 C.ar    1  UNL1        0.1424
     19 F          65.6543   94.7208   -5.6865 F       1  UNL1       -0.2041
     20 C          64.4002   95.5360   -3.5621 C.ar    1  UNL1        0.0590
     21 C          63.5247   95.2464   -2.3791 C.ar    1  UNL1        0.1402
     22 F          63.1462   96.3512   -1.4378 F       1  UNL1       -0.2044
     23 C          54.1882   95.1883   -1.9237 C.3     1  UNL1        0.0557
     24 C          55.3869   94.3102   -1.7188 C.ar    1  UNL1        0.1008
     25 C          56.8104   94.7715   -1.6155 C.ar    1  UNL1        0.0561
     26 C          57.6759   93.5630   -1.4140 C.ar    1  UNL1        0.1809
     27 O          56.7871   92.3548   -1.3926 O.2     1  UNL1       -0.3556
     28 N          55.3725   92.8165   -1.5810 N.ar    1  UNL1       -0.0817
@<TRIPOS>BOND
     1    23    24    1
     2    24    25   ar
     3    25    26   ar
     4     1    26    1
     5     1     2    1
     6     3     2    1
     7     3     4    1
     8     4     5    1
     9     4     6    1
    10     6     7    1
    11     7     8    1
    12     7     9    2
    13     9    10    1
    14    10    15    1
    15    15    16   ar
    16    16    17   ar
    17    17    18   ar
    18    18    19    1
    19    18    20   ar
    20    20    21   ar
    21    21    22    1
    22    10    11    1
    23    11    12    1
    24    26    27   ar
    25    27    28   ar
    26    28    24   ar
    27    12     1    1
    28    10     3    1
    29    21    15   ar
    30     8    13    1
    31     8    14    1
