@<TRIPOS>MOLECULE
*****
 27 30 0 0 0
SMALL
GASTEIGER

@<TRIPOS>ATOM
      1 C          63.1635   84.3316   13.9505 C.ar    1  UNL1        0.0070
      2 C          63.9797   84.9150   15.0655 C.ar    1  UNL1       -0.0017
      3 C          64.3259   86.3745   15.0573 C.ar    1  UNL1       -0.0005
      4 C          63.8560   87.2505   13.9340 C.ar    1  UNL1       -0.0022
      5 C          64.2023   88.7100   13.9258 C.ar    1  UNL1        0.0021
      6 C          63.7323   89.5860   12.8025 C.ar    1  UNL1        0.0512
      7 C          62.9161   89.0025   11.6874 C.ar    1  UNL1        0.0043
      8 C          62.5698   87.5431   11.6957 C.ar    1  UNL1        0.0001
      9 C          63.0398   86.6671   12.8190 C.ar    1  UNL1       -0.0005
     10 C          62.6935   85.2076   12.8272 C.ar    1  UNL1       -0.0017
     11 C          64.2254   90.9785   13.0632 C.2     1  UNL1        0.2491
     12 O          63.9859   92.1761   12.1924 O.2     1  UNL1       -0.2699
     13 N          65.0001   90.9630   14.3475 N.am    1  UNL1       -0.2702
     14 C          65.6712   92.1425   14.9866 C.3     1  UNL1        0.1155
     15 C          64.9858   89.5611   14.8807 C.3     1  UNL1        0.1206
     16 C          62.8172   82.8721   13.9586 C.3     1  UNL1        0.1410
     17 O          62.2498   83.0144   15.3398 O.3     1  UNL1       -0.3771
     18 H          61.5902   83.7256   15.3467 H       1  UNL1        0.2112
     19 C          63.3846   82.7298   12.5775 C.ar    1  UNL1        0.0825
     20 C          64.7921   83.0451   12.1657 C.ar    1  UNL1        0.1157
     21 N          64.9215   82.7573   10.6991 N.ar    1  UNL1       -0.2228
     22 C          63.5939   82.2642   10.2046 C.ar    1  UNL1        0.1749
     23 N          62.6441   82.2472   11.3654 N.ar    1  UNL1       -0.3361
     24 H          61.7004   81.9682   11.3369 H       1  UNL1        0.1673
     25 C          61.0386   80.9823   14.0818 C.3     1  UNL1        0.0031
     26 C          62.4709   81.4127   13.9668 C.3     1  UNL1        0.0340
     27 C          63.5570   80.3835   13.8599 C.3     1  UNL1        0.0031
@<TRIPOS>BOND
     1    25    26    1
     2    26    27    1
     3    26    16    1
     4    16    17    1
     5    16     1    1
     6     1     2   ar
     7     2     3   ar
     8     3     4   ar
     9     4     5   ar
    10     5     6   ar
    11     6     7   ar
    12     7     8   ar
    13     8     9   ar
    14     9    10   ar
    15     6    11    1
    16    11    12    2
    17    11    13   am
    18    13    14    1
    19    13    15    1
    20    16    19    1
    21    19    20   ar
    22    20    21   ar
    23    21    22   ar
    24    22    23   ar
    25    10     1   ar
    26    23    19   ar
    27     9     4   ar
    28    15     5    1
    29    17    18    1
    30    23    24    1
@<TRIPOS>MOLECULE
*****
 27 30 0 0 0
SMALL
GASTEIGER

@<TRIPOS>ATOM
      1 C          61.7185   89.4911   10.4250 C.ar    1  UNL1        0.0070
      2 C          61.7040   89.1270   11.8801 C.ar    1  UNL1       -0.0017
      3 C          62.6583   89.7900   12.8286 C.ar    1  UNL1       -0.0005
      4 C          63.6271   90.8171   12.3220 C.ar    1  UNL1       -0.0022
      5 C          64.5814   91.4801   13.2706 C.ar    1  UNL1        0.0021
      6 C          65.5502   92.5071   12.7641 C.ar    1  UNL1        0.0512
      7 C          65.5647   92.8712   11.3090 C.ar    1  UNL1        0.0043
      8 C          64.6104   92.2082   10.3605 C.ar    1  UNL1        0.0001
      9 C          63.6416   91.1811   10.8670 C.ar    1  UNL1       -0.0005
     10 C          62.6873   90.5181    9.9185 C.ar    1  UNL1       -0.0017
     11 C          66.3657   92.9886   13.9274 C.2     1  UNL1        0.2491
     12 O          67.4547   94.0188   13.8745 O.2     1  UNL1       -0.2699
     13 N          65.9008   92.2592   15.1528 N.am    1  UNL1       -0.2702
     14 C          66.4434   92.4318   16.5405 C.3     1  UNL1        0.1155
     15 C          64.7981   91.3269   14.7470 C.3     1  UNL1        0.1206
     16 C          60.7642   88.8281    9.4764 C.3     1  UNL1        0.1410
     17 O          60.1769   90.1648    9.1329 O.3     1  UNL1       -0.3771
     18 H          60.8845   90.7668    8.8537 H       1  UNL1        0.2112
     19 C          61.3515   87.4913    9.8200 C.ar    1  UNL1        0.0825
     20 C          62.3227   86.7134    8.9823 C.ar    1  UNL1        0.1157
     21 N          62.6422   85.4389    9.7062 N.ar    1  UNL1       -0.2228
     22 C          61.8684   85.4293   10.9913 C.ar    1  UNL1        0.1749
     23 N          61.0707   86.6977   11.0616 N.ar    1  UNL1       -0.3361
     24 H          60.4687   86.9628   11.7940 H       1  UNL1        0.1673
     25 C          59.4966   88.8066    7.2087 C.3     1  UNL1        0.0031
     26 C          59.8100   88.1651    8.5279 C.3     1  UNL1        0.0340
     27 C          59.1690   86.8605    8.8985 C.3     1  UNL1        0.0031
@<TRIPOS>BOND
     1    25    26    1
     2    26    27    1
     3    26    16    1
     4    16    17    1
     5    16     1    1
     6     1     2   ar
     7     2     3   ar
     8     3     4   ar
     9     4     5   ar
    10     5     6   ar
    11     6     7   ar
    12     7     8   ar
    13     8     9   ar
    14     9    10   ar
    15     6    11    1
    16    11    12    2
    17    11    13   am
    18    13    14    1
    19    13    15    1
    20    16    19    1
    21    19    20   ar
    22    20    21   ar
    23    21    22   ar
    24    22    23   ar
    25    10     1   ar
    26    23    19   ar
    27     9     4   ar
    28    15     5    1
    29    17    18    1
    30    23    24    1
@<TRIPOS>MOLECULE
*****
 27 30 0 0 0
SMALL
GASTEIGER

@<TRIPOS>ATOM
      1 C          62.5066   89.2425   10.9026 C.ar    1  UNL1        0.0070
      2 C          62.8743   88.6980   12.2510 C.ar    1  UNL1       -0.0017
      3 C          63.8252   89.4537   13.1311 C.ar    1  UNL1       -0.0005
      4 C          64.4084   90.7540   12.6629 C.ar    1  UNL1       -0.0022
      5 C          65.3593   91.5097   13.5430 C.ar    1  UNL1        0.0021
      6 C          65.9425   92.8099   13.0748 C.ar    1  UNL1        0.0512
      7 C          65.5747   93.3544   11.7263 C.ar    1  UNL1        0.0043
      8 C          64.6238   92.5987   10.8462 C.ar    1  UNL1        0.0001
      9 C          64.0407   91.2985   11.3145 C.ar    1  UNL1       -0.0005
     10 C          63.0898   90.5428   10.4343 C.ar    1  UNL1       -0.0017
     11 C          66.8468   93.3277   14.1538 C.2     1  UNL1        0.2491
     12 O          67.6367   94.6020   14.1060 O.2     1  UNL1       -0.2699
     13 N          66.8225   92.3474   15.2888 N.am    1  UNL1       -0.2702
     14 C          67.5838   92.4694   16.5755 C.3     1  UNL1        0.1155
     15 C          65.9032   91.2239   14.9115 C.3     1  UNL1        0.1206
     16 C          61.5556   88.4868   10.0224 C.3     1  UNL1        0.1410
     17 O          62.7107   87.9749    9.2139 O.3     1  UNL1       -0.3771
     18 H          63.3545   87.5506    9.8025 H       1  UNL1        0.2112
     19 C          60.4006   88.9987   10.8309 C.ar    1  UNL1        0.0825
     20 C          59.8784   90.4049   10.8304 C.ar    1  UNL1        0.1157
     21 N          58.7199   90.4696   11.7811 N.ar    1  UNL1       -0.2228
     22 C          58.5261   89.1033   12.3692 C.ar    1  UNL1        0.1749
     23 N          59.5648   88.1943   11.7820 N.ar    1  UNL1       -0.3361
     24 H          59.6781   87.2377   11.9851 H       1  UNL1        0.1673
     25 C          59.6842   88.4746    8.2204 C.3     1  UNL1        0.0031
     26 C          60.6047   87.7312    9.1423 C.3     1  UNL1        0.0340
     27 C          60.5743   86.2320    9.1841 C.3     1  UNL1        0.0031
@<TRIPOS>BOND
     1    25    26    1
     2    26    27    1
     3    26    16    1
     4    16    17    1
     5    16     1    1
     6     1     2   ar
     7     2     3   ar
     8     3     4   ar
     9     4     5   ar
    10     5     6   ar
    11     6     7   ar
    12     7     8   ar
    13     8     9   ar
    14     9    10   ar
    15     6    11    1
    16    11    12    2
    17    11    13   am
    18    13    14    1
    19    13    15    1
    20    16    19    1
    21    19    20   ar
    22    20    21   ar
    23    21    22   ar
    24    22    23   ar
    25    10     1   ar
    26    23    19   ar
    27     9     4   ar
    28    15     5    1
    29    17    18    1
    30    23    24    1
@<TRIPOS>MOLECULE
*****
 27 30 0 0 0
SMALL
GASTEIGER

@<TRIPOS>ATOM
      1 C          62.7982   84.3015   13.2508 C.ar    1  UNL1        0.0070
      2 C          62.2934   84.8225   11.9380 C.ar    1  UNL1       -0.0017
      3 C          62.4683   86.2707   11.5886 C.ar    1  UNL1       -0.0005
      4 C          63.1480   87.1979   12.5522 C.ar    1  UNL1       -0.0022
      5 C          63.3229   88.6461   12.2027 C.ar    1  UNL1        0.0021
      6 C          64.0026   89.5733   13.1663 C.ar    1  UNL1        0.0512
      7 C          64.5074   89.0522   14.4792 C.ar    1  UNL1        0.0043
      8 C          64.3325   87.6040   14.8286 C.ar    1  UNL1        0.0001
      9 C          63.6528   86.6768   13.8650 C.ar    1  UNL1       -0.0005
     10 C          63.4779   85.2286   14.2144 C.ar    1  UNL1       -0.0017
     11 C          64.0314   90.9411   12.5513 C.2     1  UNL1        0.2491
     12 O          64.6190   92.1742   13.1711 O.2     1  UNL1       -0.2699
     13 N          63.3696   90.8593   11.2077 N.am    1  UNL1       -0.2702
     14 C          63.1792   91.9962   10.2480 C.3     1  UNL1        0.1155
     15 C          62.9317   89.4410   10.9923 C.3     1  UNL1        0.1206
     16 C          62.6233   82.8532   13.6002 C.3     1  UNL1        0.1410
     17 O          62.0165   83.2437   14.9152 O.3     1  UNL1       -0.3771
     18 H          61.2789   83.8548   14.7622 H       1  UNL1        0.2112
     19 C          63.2301   82.4627   12.2853 C.ar    1  UNL1        0.0825
     20 C          64.5245   82.9735   11.7252 C.ar    1  UNL1        0.1157
     21 N          64.7435   82.3193   10.3931 N.ar    1  UNL1       -0.2228
     22 C          63.5844   81.4042   10.1300 C.ar    1  UNL1        0.1749
     23 N          62.6492   81.4928   11.2994 N.ar    1  UNL1       -0.3361
     24 H          61.8026   81.0007   11.4019 H       1  UNL1        0.1673
     25 C          61.0713   80.8359   14.1214 C.3     1  UNL1        0.0031
     26 C          62.4484   81.4050   13.9496 C.3     1  UNL1        0.0340
     27 C          63.6508   80.5258   14.1271 C.3     1  UNL1        0.0031
@<TRIPOS>BOND
     1    25    26    1
     2    26    27    1
     3    26    16    1
     4    16    17    1
     5    16     1    1
     6     1     2   ar
     7     2     3   ar
     8     3     4   ar
     9     4     5   ar
    10     5     6   ar
    11     6     7   ar
    12     7     8   ar
    13     8     9   ar
    14     9    10   ar
    15     6    11    1
    16    11    12    2
    17    11    13   am
    18    13    14    1
    19    13    15    1
    20    16    19    1
    21    19    20   ar
    22    20    21   ar
    23    21    22   ar
    24    22    23   ar
    25    10     1   ar
    26    23    19   ar
    27     9     4   ar
    28    15     5    1
    29    17    18    1
    30    23    24    1
@<TRIPOS>MOLECULE
*****
 27 30 0 0 0
SMALL
GASTEIGER

@<TRIPOS>ATOM
      1 C          64.4135   90.8061   13.0673 C.ar    1  UNL1        0.0070
      2 C          63.7846   91.7134   12.0518 C.ar    1  UNL1       -0.0017
      3 C          62.8404   91.1543   11.0293 C.ar    1  UNL1       -0.0005
      4 C          62.5251   89.6878   11.0221 C.ar    1  UNL1       -0.0022
      5 C          61.5808   89.1287    9.9995 C.ar    1  UNL1        0.0021
      6 C          61.2655   87.6622    9.9923 C.ar    1  UNL1        0.0512
      7 C          61.8944   86.7549   11.0079 C.ar    1  UNL1        0.0043
      8 C          62.8387   87.3140   12.0304 C.ar    1  UNL1        0.0001
      9 C          63.1540   88.7805   12.0376 C.ar    1  UNL1       -0.0005
     10 C          64.0982   89.3396   13.0602 C.ar    1  UNL1       -0.0017
     11 C          60.3042   87.4002    8.8710 C.2     1  UNL1        0.2491
     12 O          59.7236   86.0676    8.5006 O.2     1  UNL1       -0.2699
     13 N          60.0254   88.7048    8.1852 N.am    1  UNL1       -0.2702
     14 C          59.1172   88.9058    7.0085 C.3     1  UNL1        0.1155
     15 C          60.8144   89.7730    8.8826 C.3     1  UNL1        0.1206
     16 C          65.3578   91.3652   14.0899 C.3     1  UNL1        0.1410
     17 O          64.7741   90.4530   15.1277 O.3     1  UNL1       -0.3771
     18 H          64.8051   89.5378   14.8080 H       1  UNL1        0.2112
     19 C          65.9415   92.2775   13.0521 C.ar    1  UNL1        0.0825
     20 C          66.8207   91.8644   11.9091 C.ar    1  UNL1        0.1157
     21 N          67.1711   93.0946   11.1256 N.ar    1  UNL1       -0.2228
     22 C          66.5084   94.2681   11.7845 C.ar    1  UNL1        0.1749
     23 N          65.7486   93.7631   12.9751 N.ar    1  UNL1       -0.3361
     24 H          65.2166   94.3105   13.5968 H       1  UNL1        0.1673
     25 C          65.7660   92.6476   16.3123 C.3     1  UNL1        0.0031
     26 C          66.3021   91.9244   15.1125 C.3     1  UNL1        0.0340
     27 C          67.7826   91.7603   14.9353 C.3     1  UNL1        0.0031
@<TRIPOS>BOND
     1    25    26    1
     2    26    27    1
     3    26    16    1
     4    16    17    1
     5    16     1    1
     6     1     2   ar
     7     2     3   ar
     8     3     4   ar
     9     4     5   ar
    10     5     6   ar
    11     6     7   ar
    12     7     8   ar
    13     8     9   ar
    14     9    10   ar
    15     6    11    1
    16    11    12    2
    17    11    13   am
    18    13    14    1
    19    13    15    1
    20    16    19    1
    21    19    20   ar
    22    20    21   ar
    23    21    22   ar
    24    22    23   ar
    25    10     1   ar
    26    23    19   ar
    27     9     4   ar
    28    15     5    1
    29    17    18    1
    30    23    24    1
@<TRIPOS>MOLECULE
*****
 27 30 0 0 0
SMALL
GASTEIGER

@<TRIPOS>ATOM
      1 C          63.8313   90.4282   12.7093 C.ar    1  UNL1        0.0070
      2 C          63.2004   91.4209   11.7784 C.ar    1  UNL1       -0.0017
      3 C          62.2793   90.9501   10.6922 C.ar    1  UNL1       -0.0005
      4 C          61.9890   89.4866   10.5370 C.ar    1  UNL1       -0.0022
      5 C          61.0679   89.0158    9.4507 C.ar    1  UNL1        0.0021
      6 C          60.7776   87.5524    9.2954 C.ar    1  UNL1        0.0512
      7 C          61.4085   86.5598   10.2264 C.ar    1  UNL1        0.0043
      8 C          62.3297   87.0306   11.3126 C.ar    1  UNL1        0.0001
      9 C          62.6199   88.4940   11.4679 C.ar    1  UNL1       -0.0005
     10 C          63.5410   88.9648   12.5540 C.ar    1  UNL1       -0.0017
     11 C          59.8357   87.3868    8.1399 C.2     1  UNL1        0.2491
     12 O          59.2828   86.0880    7.6323 O.2     1  UNL1       -0.2699
     13 N          59.5439   88.7477    7.5810 N.am    1  UNL1       -0.2702
     14 C          58.6478   89.0490    6.4164 C.3     1  UNL1        0.1155
     15 C          60.3053   89.7546    8.3911 C.3     1  UNL1        0.1206
     16 C          64.7525   90.8990   13.7956 C.3     1  UNL1        0.1410
     17 O          65.3893   91.8622   12.8381 O.3     1  UNL1       -0.3771
     18 H          64.7040   92.4168   12.4337 H       1  UNL1        0.2112
     19 C          64.1156   89.9359   14.7530 C.ar    1  UNL1        0.0825
     20 C          64.4954   88.4967   14.9392 C.ar    1  UNL1        0.1157
     21 N          63.6016   87.9141   15.9937 N.ar    1  UNL1       -0.2228
     22 C          62.6695   88.9933   16.4592 C.ar    1  UNL1        0.1749
     23 N          62.9871   90.2427   15.6924 N.ar    1  UNL1       -0.3361
     24 H          62.5345   91.1116   15.7888 H       1  UNL1        0.1673
     25 C          67.1504   91.1332   14.7677 C.3     1  UNL1        0.0031
     26 C          65.6736   91.3698   14.8818 C.3     1  UNL1        0.0340
     27 C          65.1179   92.0771   16.0822 C.3     1  UNL1        0.0031
@<TRIPOS>BOND
     1    25    26    1
     2    26    27    1
     3    26    16    1
     4    16    17    1
     5    16     1    1
     6     1     2   ar
     7     2     3   ar
     8     3     4   ar
     9     4     5   ar
    10     5     6   ar
    11     6     7   ar
    12     7     8   ar
    13     8     9   ar
    14     9    10   ar
    15     6    11    1
    16    11    12    2
    17    11    13   am
    18    13    14    1
    19    13    15    1
    20    16    19    1
    21    19    20   ar
    22    20    21   ar
    23    21    22   ar
    24    22    23   ar
    25    10     1   ar
    26    23    19   ar
    27     9     4   ar
    28    15     5    1
    29    17    18    1
    30    23    24    1
@<TRIPOS>MOLECULE
*****
 27 30 0 0 0
SMALL
GASTEIGER

@<TRIPOS>ATOM
      1 C          61.8469   89.6081   10.5128 C.ar    1  UNL1        0.0070
      2 C          62.8405   90.5872    9.9615 C.ar    1  UNL1       -0.0017
      3 C          63.8036   91.2769   10.8817 C.ar    1  UNL1       -0.0005
      4 C          63.7730   90.9875   12.3532 C.ar    1  UNL1       -0.0022
      5 C          64.7361   91.6772   13.2734 C.ar    1  UNL1        0.0021
      6 C          64.7055   91.3878   14.7449 C.ar    1  UNL1        0.0512
      7 C          63.7118   90.4086   15.2962 C.ar    1  UNL1        0.0043
      8 C          62.7487   89.7190   14.3760 C.ar    1  UNL1        0.0001
      9 C          62.7793   90.0084   12.9045 C.ar    1  UNL1       -0.0005
     10 C          61.8163   89.3187   11.9843 C.ar    1  UNL1       -0.0017
     11 C          65.7705   92.2147   15.4022 C.2     1  UNL1        0.2491
     12 O          66.0905   92.2372   16.8675 O.2     1  UNL1       -0.2699
     13 N          66.4592   93.0152   14.3369 N.am    1  UNL1       -0.2702
     14 C          67.5890   93.9787   14.5499 C.3     1  UNL1        0.1155
     15 C          65.8200   92.6830   13.0213 C.3     1  UNL1        0.1206
     16 C          60.8837   88.9184    9.5926 C.3     1  UNL1        0.1410
     17 O          60.3091   90.2466    9.1984 O.3     1  UNL1       -0.3771
     18 H          61.0220   90.8300    8.8946 H       1  UNL1        0.2112
     19 C          61.4584   87.5901    9.9868 C.ar    1  UNL1        0.0825
     20 C          62.4036   86.7607    9.1691 C.ar    1  UNL1        0.1157
     21 N          62.7181   85.5159    9.9450 N.ar    1  UNL1       -0.2228
     22 C          61.9673   85.5761   11.2422 C.ar    1  UNL1        0.1749
     23 N          61.1888   86.8580   11.2681 N.ar    1  UNL1       -0.3361
     24 H          60.6036   87.1650   11.9978 H       1  UNL1        0.1673
     25 C          59.5816   88.8409    7.3458 C.3     1  UNL1        0.0031
     26 C          59.9207   88.2286    8.6724 C.3     1  UNL1        0.0340
     27 C          59.2967   86.9265    9.0790 C.3     1  UNL1        0.0031
@<TRIPOS>BOND
     1    25    26    1
     2    26    27    1
     3    26    16    1
     4    16    17    1
     5    16     1    1
     6     1     2   ar
     7     2     3   ar
     8     3     4   ar
     9     4     5   ar
    10     5     6   ar
    11     6     7   ar
    12     7     8   ar
    13     8     9   ar
    14     9    10   ar
    15     6    11    1
    16    11    12    2
    17    11    13   am
    18    13    14    1
    19    13    15    1
    20    16    19    1
    21    19    20   ar
    22    20    21   ar
    23    21    22   ar
    24    22    23   ar
    25    10     1   ar
    26    23    19   ar
    27     9     4   ar
    28    15     5    1
    29    17    18    1
    30    23    24    1
@<TRIPOS>MOLECULE
*****
 27 30 0 0 0
SMALL
GASTEIGER

@<TRIPOS>ATOM
      1 C          63.6808   88.0088   13.2612 C.ar    1  UNL1        0.0070
      2 C          63.1335   87.4122   11.9985 C.ar    1  UNL1       -0.0017
      3 C          62.9973   85.9240   11.8698 C.ar    1  UNL1       -0.0005
      4 C          63.4084   85.0323   13.0038 C.ar    1  UNL1       -0.0022
      5 C          63.2721   83.5440   12.8751 C.ar    1  UNL1        0.0021
      6 C          63.6832   82.6524   14.0091 C.ar    1  UNL1        0.0512
      7 C          64.2305   83.2490   15.2719 C.ar    1  UNL1        0.0043
      8 C          64.3668   84.7373   15.4006 C.ar    1  UNL1        0.0001
      9 C          63.9557   85.6289   14.2666 C.ar    1  UNL1       -0.0005
     10 C          64.0919   87.1171   14.3953 C.ar    1  UNL1       -0.0017
     11 C          63.4349   81.2321   13.5955 C.2     1  UNL1        0.2491
     12 O          63.7039   80.0121   14.4257 O.2     1  UNL1       -0.2699
     13 N          62.8703   81.2460   12.2059 N.am    1  UNL1       -0.2702
     14 C          62.4757   80.0423   11.4025 C.3     1  UNL1        0.1155
     15 C          62.7697   82.6748   11.7606 C.3     1  UNL1        0.1206
     16 C          63.8171   89.4971   13.3900 C.3     1  UNL1        0.1410
     17 O          64.9659   89.3101   14.3361 O.3     1  UNL1       -0.3771
     18 H          65.6345   88.7406   13.9244 H       1  UNL1        0.2112
     19 C          62.6683   89.6840   12.4439 C.ar    1  UNL1        0.0825
     20 C          62.7643   89.7923   10.9508 C.ar    1  UNL1        0.1157
     21 N          61.3770   89.9708   10.4088 N.ar    1  UNL1       -0.2228
     22 C          60.4236   89.9728   11.5669 C.ar    1  UNL1        0.1749
     23 N          61.2216   89.7956   12.8246 N.ar    1  UNL1       -0.3361
     24 H          60.8595   89.7590   13.7393 H       1  UNL1        0.1673
     25 C          63.8477   91.6343   14.8669 C.3     1  UNL1        0.0031
     26 C          63.9533   90.9853   13.5187 C.3     1  UNL1        0.0340
     27 C          64.1951   91.8246   12.2992 C.3     1  UNL1        0.0031
@<TRIPOS>BOND
     1    25    26    1
     2    26    27    1
     3    26    16    1
     4    16    17    1
     5    16     1    1
     6     1     2   ar
     7     2     3   ar
     8     3     4   ar
     9     4     5   ar
    10     5     6   ar
    11     6     7   ar
    12     7     8   ar
    13     8     9   ar
    14     9    10   ar
    15     6    11    1
    16    11    12    2
    17    11    13   am
    18    13    14    1
    19    13    15    1
    20    16    19    1
    21    19    20   ar
    22    20    21   ar
    23    21    22   ar
    24    22    23   ar
    25    10     1   ar
    26    23    19   ar
    27     9     4   ar
    28    15     5    1
    29    17    18    1
    30    23    24    1
@<TRIPOS>MOLECULE
*****
 27 30 0 0 0
SMALL
GASTEIGER

@<TRIPOS>ATOM
      1 C          64.3839   90.4525   14.3827 C.ar    1  UNL1        0.0070
      2 C          63.7331   90.9276   13.1176 C.ar    1  UNL1       -0.0017
      3 C          63.1728   89.9340   12.1435 C.ar    1  UNL1       -0.0005
      4 C          63.2634   88.4653   12.4346 C.ar    1  UNL1       -0.0022
      5 C          62.7030   87.4717   11.4605 C.ar    1  UNL1        0.0021
      6 C          62.7936   86.0030   11.7516 C.ar    1  UNL1        0.0512
      7 C          63.4444   85.5279   13.0169 C.ar    1  UNL1        0.0043
      8 C          64.0047   86.5215   13.9909 C.ar    1  UNL1        0.0001
      9 C          63.9142   87.9902   13.6998 C.ar    1  UNL1       -0.0005
     10 C          64.4744   88.9838   14.6738 C.ar    1  UNL1       -0.0017
     11 C          62.1565   85.2645   10.6120 C.2     1  UNL1        0.2491
     12 O          62.0266   83.7751   10.4894 O.2     1  UNL1       -0.2699
     13 N          61.6723   86.2767    9.6166 N.am    1  UNL1       -0.2702
     14 C          60.9731   85.9773    8.3238 C.3     1  UNL1        0.1155
     15 C          62.0101   87.6408   10.1410 C.3     1  UNL1        0.1206
     16 C          64.9442   91.4461   15.3569 C.3     1  UNL1        0.1410
     17 O          63.8644   91.0944   16.3368 O.3     1  UNL1       -0.3771
     18 H          63.8620   90.1358   16.4850 H       1  UNL1        0.2112
     19 C          66.0240   91.7978   14.3769 C.ar    1  UNL1        0.0825
     20 C          65.9913   92.9351   13.3995 C.ar    1  UNL1        0.1157
     21 N          67.2733   92.9142   12.6208 N.ar    1  UNL1       -0.2228
     22 C          68.0983   91.7639   13.1171 C.ar    1  UNL1        0.1749
     23 N          67.3263   91.0739   14.2024 N.ar    1  UNL1       -0.3361
     24 H          67.6222   90.2846   14.7109 H       1  UNL1        0.1673
     25 C          66.9569   92.8103   16.2723 C.3     1  UNL1        0.0031
     26 C          65.5046   92.4397   16.3309 C.3     1  UNL1        0.0340
     27 C          64.6126   93.0626   17.3636 C.3     1  UNL1        0.0031
@<TRIPOS>BOND
     1    25    26    1
     2    26    27    1
     3    26    16    1
     4    16    17    1
     5    16     1    1
     6     1     2   ar
     7     2     3   ar
     8     3     4   ar
     9     4     5   ar
    10     5     6   ar
    11     6     7   ar
    12     7     8   ar
    13     8     9   ar
    14     9    10   ar
    15     6    11    1
    16    11    12    2
    17    11    13   am
    18    13    14    1
    19    13    15    1
    20    16    19    1
    21    19    20   ar
    22    20    21   ar
    23    21    22   ar
    24    22    23   ar
    25    10     1   ar
    26    23    19   ar
    27     9     4   ar
    28    15     5    1
    29    17    18    1
    30    23    24    1
