@<TRIPOS>MOLECULE
*****
 32 35 0 0 0
SMALL
GASTEIGER

@<TRIPOS>ATOM
      1 N          62.2169   89.9519   12.7154 N.pl3   1  UNL1       -0.3115
      2 H          61.7784   90.0803   13.5874 H       1  UNL1        0.1523
      3 C          63.3532   90.8429   12.3088 C.ar    1  UNL1        0.0689
      4 C          63.5470   91.1996   10.8649 C.ar    1  UNL1        0.0368
      5 C          64.6831   92.0906   10.4584 C.ar    1  UNL1        0.1003
      6 N          65.6255   92.6249   11.4960 N.ar    1  UNL1       -0.2406
      7 C          65.4317   92.2682   12.9399 C.ar    1  UNL1        0.1206
      8 C          66.1938   92.6410   14.1770 C.ar    1  UNL1        0.1407
      9 N          65.5286   91.9804   15.3480 N.ar    1  UNL1       -0.1656
     10 N          64.3554   91.1993   14.8347 N.ar    1  UNL1       -0.2387
     11 C          64.2955   91.3772   13.3464 C.ar    1  UNL1        0.1109
     12 C          63.4084   90.3836   15.6640 C.3     1  UNL1        0.2116
     13 C          63.5478   88.8909   15.7114 C.2     1  UNL1        0.2443
     14 N          63.0310   88.1265   16.8941 N.am    1  UNL1       -0.3272
     15 O          64.2040   88.1625   14.5761 O.2     1  UNL1       -0.2732
     16 H          62.6003   88.6046   17.6392 H       1  UNL1        0.1450
     17 H          63.1226   87.1468   16.9252 H       1  UNL1        0.1450
     18 C          59.9113   90.4477   10.8611 C.3     1  UNL1        0.0340
     19 C          60.5961   89.1132   10.8661 C.ar    1  UNL1        0.0107
     20 C          60.1282   88.0266    9.9440 C.ar    1  UNL1        0.0958
     21 N          60.8132   86.6920    9.9490 N.ar    1  UNL1       -0.2440
     22 C          61.9660   86.4442   10.8761 C.ar    1  UNL1        0.0847
     23 C          62.4339   87.5308   11.7982 C.ar    1  UNL1        0.0335
     24 C          61.7490   88.8653   11.7932 C.ar    1  UNL1        0.0473
     25 C          62.6509   85.1096   10.8811 C.ar    1  UNL1        0.0460
     26 C          62.6360   84.2636   12.1196 C.ar    1  UNL1        0.0151
     27 C          63.3209   82.9292   12.1246 C.ar    1  UNL1        0.0579
     28 CL         63.3061   82.0831   13.3631 Cl      1  UNL1       -0.0822
     29 C          64.0208   82.4407   10.8910 C.ar    1  UNL1        0.0137
     30 C          64.0357   83.2868    9.6525 C.ar    1  UNL1        0.0306
     31 C          63.3507   84.6212    9.6475 C.ar    1  UNL1        0.1416
     32 F          63.3656   85.4673    8.4089 F       1  UNL1       -0.2041
@<TRIPOS>BOND
     1    18    19    1
     2    19    20   ar
     3    20    21   ar
     4    21    22   ar
     5    22    25    1
     6    25    26   ar
     7    26    27   ar
     8    27    28    1
     9    27    29   ar
    10    29    30   ar
    11    30    31   ar
    12    31    32    1
    13    22    23   ar
    14    23    24   ar
    15    24     1    1
    16     1     3    1
    17     3     4   ar
    18     4     5   ar
    19     5     6   ar
    20     6     7   ar
    21     7     8   ar
    22     8     9   ar
    23     9    10   ar
    24    10    12    1
    25    12    13    1
    26    13    14   am
    27    13    15    2
    28    10    11   ar
    29    24    19   ar
    30    11     3   ar
    31    31    25   ar
    32    11     7   ar
    33     1     2    1
    34    14    16    1
    35    14    17    1
@<TRIPOS>MOLECULE
*****
 32 35 0 0 0
SMALL
GASTEIGER

@<TRIPOS>ATOM
      1 N          61.7647   85.8726   11.9894 N.pl3   1  UNL1       -0.3115
      2 H          61.0206   85.6801   12.6046 H       1  UNL1        0.1523
      3 C          62.6729   84.7661   11.5412 C.ar    1  UNL1        0.0689
      4 C          63.0947   84.6775   10.1045 C.ar    1  UNL1        0.0368
      5 C          64.0028   83.5710    9.6564 C.ar    1  UNL1        0.1003
      6 N          64.4891   82.5530   10.6450 N.ar    1  UNL1       -0.2406
      7 C          64.0673   82.6416   12.0817 C.ar    1  UNL1        0.1206
      8 C          64.3833   81.7894   13.2749 C.ar    1  UNL1        0.1407
      9 N          63.6705   82.3692   14.4605 N.ar    1  UNL1       -0.1656
     10 N          62.9139   83.5798   14.0001 N.ar    1  UNL1       -0.2387
     11 C          63.1592   83.7481   12.5298 C.ar    1  UNL1        0.1109
     12 C          62.0617   84.4663   14.8590 C.3     1  UNL1        0.2116
     13 C          62.6650   85.1762   16.0346 C.2     1  UNL1        0.2443
     14 N          64.1559   85.2537   16.1796 N.am    1  UNL1       -0.3272
     15 O          61.7773   85.8087   17.0651 O.2     1  UNL1       -0.2732
     16 H          64.7386   84.8387   15.5033 H       1  UNL1        0.1450
     17 H          64.5518   85.7197   16.9513 H       1  UNL1        0.1450
     18 C          60.3515   86.8480    9.5294 C.3     1  UNL1        0.0340
     19 C          61.2837   87.7603   10.2702 C.ar    1  UNL1        0.0107
     20 C          61.5092   89.1602    9.7811 C.ar    1  UNL1        0.0958
     21 N          62.4415   90.0725   10.5219 N.ar    1  UNL1       -0.2440
     22 C          63.1481   89.5848   11.7519 C.ar    1  UNL1        0.0847
     23 C          62.9225   88.1848   12.2411 C.ar    1  UNL1        0.0335
     24 C          61.9903   87.2726   11.5003 C.ar    1  UNL1        0.0473
     25 C          64.0803   90.4970   12.4928 C.ar    1  UNL1        0.0460
     26 C          64.5792   91.7514   11.8390 C.ar    1  UNL1        0.0151
     27 C          65.5113   92.6636   12.5798 C.ar    1  UNL1        0.0579
     28 CL         66.0103   93.9181   11.9260 Cl      1  UNL1       -0.0822
     29 C          65.9447   92.3214   13.9745 C.ar    1  UNL1        0.0137
     30 C          65.4458   91.0669   14.6283 C.ar    1  UNL1        0.0306
     31 C          64.5136   90.1548   13.8874 C.ar    1  UNL1        0.1416
     32 F          64.0147   88.9003   14.5412 F       1  UNL1       -0.2041
@<TRIPOS>BOND
     1    18    19    1
     2    19    20   ar
     3    20    21   ar
     4    21    22   ar
     5    22    25    1
     6    25    26   ar
     7    26    27   ar
     8    27    28    1
     9    27    29   ar
    10    29    30   ar
    11    30    31   ar
    12    31    32    1
    13    22    23   ar
    14    23    24   ar
    15    24     1    1
    16     1     3    1
    17     3     4   ar
    18     4     5   ar
    19     5     6   ar
    20     6     7   ar
    21     7     8   ar
    22     8     9   ar
    23     9    10   ar
    24    10    12    1
    25    12    13    1
    26    13    14   am
    27    13    15    2
    28    10    11   ar
    29    24    19   ar
    30    11     3   ar
    31    31    25   ar
    32    11     7   ar
    33     1     2    1
    34    14    16    1
    35    14    17    1
@<TRIPOS>MOLECULE
*****
 32 35 0 0 0
SMALL
GASTEIGER

@<TRIPOS>ATOM
      1 N          64.6796   88.8672   14.6226 N.pl3   1  UNL1       -0.3115
      2 H          65.5094   89.2005   15.0344 H       1  UNL1        0.1523
      3 C          64.1556   89.5044   13.3697 C.ar    1  UNL1        0.0689
      4 C          63.0949   88.8143   12.5644 C.ar    1  UNL1        0.0368
      5 C          62.5709   89.4515   11.3117 C.ar    1  UNL1        0.1003
      6 N          63.1076   90.7788   10.8643 N.ar    1  UNL1       -0.2406
      7 C          64.1683   91.4689   11.6696 C.ar    1  UNL1        0.1206
      8 C          64.8835   92.7736   11.4791 C.ar    1  UNL1        0.1407
      9 N          65.8495   92.9427   12.6141 N.ar    1  UNL1       -0.1656
     10 N          65.7314   91.7426   13.5061 N.ar    1  UNL1       -0.2387
     11 C          64.6923   90.8317   12.9224 C.ar    1  UNL1        0.1109
     12 C          66.5147   91.4965   14.7614 C.3     1  UNL1        0.2116
     13 C          67.9413   91.9502   14.8563 C.2     1  UNL1        0.2443
     14 N          68.8053   91.9696   13.6303 N.am    1  UNL1       -0.3272
     15 O          68.5039   92.3844   16.1773 O.2     1  UNL1       -0.2732
     16 H          68.4361   91.6846   12.7633 H       1  UNL1        0.1450
     17 H          69.7416   92.2674   13.6926 H       1  UNL1        0.1450
     18 C          63.1979   89.2679   17.2002 C.3     1  UNL1        0.0340
     19 C          63.1985   87.9226   16.5367 C.ar    1  UNL1        0.0107
     20 C          62.4582   86.7777   17.1620 C.ar    1  UNL1        0.0958
     21 N          62.4587   85.4323   16.4985 N.ar    1  UNL1       -0.2440
     22 C          63.1995   85.2320   15.2097 C.ar    1  UNL1        0.0847
     23 C          63.9398   86.3770   14.5844 C.ar    1  UNL1        0.0335
     24 C          63.9393   87.7223   15.2479 C.ar    1  UNL1        0.0473
     25 C          63.2001   83.8867   14.5462 C.ar    1  UNL1        0.0460
     26 C          62.0018   82.9922   14.6634 C.ar    1  UNL1        0.0151
     27 C          62.0024   81.6469   13.9999 C.ar    1  UNL1        0.0579
     28 CL         60.8041   80.7523   14.1171 Cl      1  UNL1       -0.0822
     29 C          63.2013   81.1963   13.2192 C.ar    1  UNL1        0.0137
     30 C          64.3996   82.0908   13.1019 C.ar    1  UNL1        0.0306
     31 C          64.3990   83.4361   13.7654 C.ar    1  UNL1        0.1416
     32 F          65.5973   84.3307   13.6482 F       1  UNL1       -0.2041
@<TRIPOS>BOND
     1    18    19    1
     2    19    20   ar
     3    20    21   ar
     4    21    22   ar
     5    22    25    1
     6    25    26   ar
     7    26    27   ar
     8    27    28    1
     9    27    29   ar
    10    29    30   ar
    11    30    31   ar
    12    31    32    1
    13    22    23   ar
    14    23    24   ar
    15    24     1    1
    16     1     3    1
    17     3     4   ar
    18     4     5   ar
    19     5     6   ar
    20     6     7   ar
    21     7     8   ar
    22     8     9   ar
    23     9    10   ar
    24    10    12    1
    25    12    13    1
    26    13    14   am
    27    13    15    2
    28    10    11   ar
    29    24    19   ar
    30    11     3   ar
    31    31    25   ar
    32    11     7   ar
    33     1     2    1
    34    14    16    1
    35    14    17    1
@<TRIPOS>MOLECULE
*****
 32 35 0 0 0
SMALL
GASTEIGER

@<TRIPOS>ATOM
      1 N          62.8981   90.5422   12.4490 N.pl3   1  UNL1       -0.3115
      2 H          62.2448   90.8757   13.1057 H       1  UNL1        0.1523
      3 C          64.1149   91.3562   12.1217 C.ar    1  UNL1        0.0689
      4 C          64.1764   92.1305   10.8385 C.ar    1  UNL1        0.0368
      5 C          65.3931   92.9444   10.5113 C.ar    1  UNL1        0.1003
      6 N          66.5483   92.9840   11.4674 N.ar    1  UNL1       -0.2406
      7 C          66.4868   92.2097   12.7506 C.ar    1  UNL1        0.1206
      8 C          67.4633   92.0578   13.8790 C.ar    1  UNL1        0.1407
      9 N          66.8500   91.1500   14.9036 N.ar    1  UNL1       -0.1656
     10 N          65.4945   90.7408   14.4085 N.ar    1  UNL1       -0.2387
     11 C          65.2701   91.3958   13.0777 C.ar    1  UNL1        0.1109
     12 C          64.5324   89.8357   15.1191 C.3     1  UNL1        0.2116
     13 C          63.4474   90.4184   15.9754 C.2     1  UNL1        0.2443
     14 N          62.2319   89.6032   16.3038 N.am    1  UNL1       -0.3272
     15 O          63.5780   91.8164   16.5032 O.2     1  UNL1       -0.2732
     16 H          62.1462   88.6857   15.9574 H       1  UNL1        0.1450
     17 H          61.5198   89.9857   16.8658 H       1  UNL1        0.1450
     18 C          61.7203   90.4418    9.6917 C.3     1  UNL1        0.0340
     19 C          62.0879   89.1700   10.3970 C.ar    1  UNL1        0.0107
     20 C          61.8665   87.8480    9.7237 C.ar    1  UNL1        0.0958
     21 N          62.2341   86.5763   10.4291 N.ar    1  UNL1       -0.2440
     22 C          62.8230   86.6265   11.8077 C.ar    1  UNL1        0.0847
     23 C          63.0443   87.9485   12.4810 C.ar    1  UNL1        0.0335
     24 C          62.6768   89.2202   11.7757 C.ar    1  UNL1        0.0473
     25 C          63.1906   85.3547   12.5131 C.ar    1  UNL1        0.0460
     26 C          62.7817   84.0319   11.9361 C.ar    1  UNL1        0.0151
     27 C          63.1493   82.7602   12.6415 C.ar    1  UNL1        0.0579
     28 CL         62.7404   81.4373   12.0645 Cl      1  UNL1       -0.0822
     29 C          63.9258   82.8113   13.9239 C.ar    1  UNL1        0.0137
     30 C          64.3347   84.1341   14.5008 C.ar    1  UNL1        0.0306
     31 C          63.9671   85.4058   13.7954 C.ar    1  UNL1        0.1416
     32 F          64.3760   86.7287   14.3724 F       1  UNL1       -0.2041
@<TRIPOS>BOND
     1    18    19    1
     2    19    20   ar
     3    20    21   ar
     4    21    22   ar
     5    22    25    1
     6    25    26   ar
     7    26    27   ar
     8    27    28    1
     9    27    29   ar
    10    29    30   ar
    11    30    31   ar
    12    31    32    1
    13    22    23   ar
    14    23    24   ar
    15    24     1    1
    16     1     3    1
    17     3     4   ar
    18     4     5   ar
    19     5     6   ar
    20     6     7   ar
    21     7     8   ar
    22     8     9   ar
    23     9    10   ar
    24    10    12    1
    25    12    13    1
    26    13    14   am
    27    13    15    2
    28    10    11   ar
    29    24    19   ar
    30    11     3   ar
    31    31    25   ar
    32    11     7   ar
    33     1     2    1
    34    14    16    1
    35    14    17    1
@<TRIPOS>MOLECULE
*****
 32 35 0 0 0
SMALL
GASTEIGER

@<TRIPOS>ATOM
      1 N          61.9191   86.7445   11.8546 N.pl3   1  UNL1       -0.3115
      2 H          61.4550   86.4609   12.6752 H       1  UNL1        0.1523
      3 C          62.5470   85.7205   10.9560 C.ar    1  UNL1        0.0689
      4 C          62.4406   85.8636    9.4666 C.ar    1  UNL1        0.0368
      5 C          63.0685   84.8396    8.5681 C.ar    1  UNL1        0.1003
      6 N          63.8026   83.6726    9.1590 N.ar    1  UNL1       -0.2406
      7 C          63.9090   83.5296   10.6483 C.ar    1  UNL1        0.1206
      8 C          64.5645   82.4938   11.5129 C.ar    1  UNL1        0.1407
      9 N          64.3417   82.8776   12.9458 N.ar    1  UNL1       -0.1656
     10 N          63.5486   84.1506   12.9668 N.ar    1  UNL1       -0.2387
     11 C          63.2811   84.5535   11.5468 C.ar    1  UNL1        0.1109
     12 C          63.1014   84.8907   14.1924 C.3     1  UNL1        0.2116
     13 C          62.6201   84.1314   15.3932 C.2     1  UNL1        0.2443
     14 N          62.6213   82.6315   15.3821 N.am    1  UNL1       -0.3272
     15 O          62.1374   84.8721   16.6050 O.2     1  UNL1       -0.2732
     16 H          62.9380   82.1453   14.5868 H       1  UNL1        0.1450
     17 H          62.3053   82.1332   16.1702 H       1  UNL1        0.1450
     18 C          59.8606   87.9649   10.0454 C.3     1  UNL1        0.0340
     19 C          60.9692   88.8107   10.5982 C.ar    1  UNL1        0.0107
     20 C          61.0486   90.2667   10.2464 C.ar    1  UNL1        0.0958
     21 N          62.1572   91.1125   10.7993 N.ar    1  UNL1       -0.2440
     22 C          63.1864   90.5023   11.7039 C.ar    1  UNL1        0.0847
     23 C          63.1071   89.0463   12.0556 C.ar    1  UNL1        0.0335
     24 C          61.9985   88.2005   11.5028 C.ar    1  UNL1        0.0473
     25 C          64.2951   91.3481   12.2567 C.ar    1  UNL1        0.0460
     26 C          64.6231   91.2922   13.7193 C.ar    1  UNL1        0.0151
     27 C          65.7317   92.1380   14.2721 C.ar    1  UNL1        0.0579
     28 CL         66.0598   92.0822   15.7348 Cl      1  UNL1       -0.0822
     29 C          66.5123   93.0396   13.3623 C.ar    1  UNL1        0.0137
     30 C          66.1843   93.0954   11.8997 C.ar    1  UNL1        0.0306
     31 C          65.0757   92.2497   11.3469 C.ar    1  UNL1        0.1416
     32 F          64.7477   92.3055    9.8842 F       1  UNL1       -0.2041
@<TRIPOS>BOND
     1    18    19    1
     2    19    20   ar
     3    20    21   ar
     4    21    22   ar
     5    22    25    1
     6    25    26   ar
     7    26    27   ar
     8    27    28    1
     9    27    29   ar
    10    29    30   ar
    11    30    31   ar
    12    31    32    1
    13    22    23   ar
    14    23    24   ar
    15    24     1    1
    16     1     3    1
    17     3     4   ar
    18     4     5   ar
    19     5     6   ar
    20     6     7   ar
    21     7     8   ar
    22     8     9   ar
    23     9    10   ar
    24    10    12    1
    25    12    13    1
    26    13    14   am
    27    13    15    2
    28    10    11   ar
    29    24    19   ar
    30    11     3   ar
    31    31    25   ar
    32    11     7   ar
    33     1     2    1
    34    14    16    1
    35    14    17    1
@<TRIPOS>MOLECULE
*****
 32 35 0 0 0
SMALL
GASTEIGER

@<TRIPOS>ATOM
      1 N          63.5802   89.7376   13.3544 N.pl3   1  UNL1       -0.3115
      2 H          63.4745   89.9615   14.3073 H       1  UNL1        0.1523
      3 C          63.9935   90.7973   12.3764 C.ar    1  UNL1        0.0689
      4 C          63.4470   90.7829   10.9796 C.ar    1  UNL1        0.0368
      5 C          63.8603   91.8424   10.0016 C.ar    1  UNL1        0.1003
      6 N          64.8201   92.9164   10.4204 N.ar    1  UNL1       -0.2406
      7 C          65.3666   92.9308   11.8172 C.ar    1  UNL1        0.1206
      8 C          66.3214   93.8558   12.5120 C.ar    1  UNL1        0.1407
      9 N          66.4982   93.3679   13.9194 N.ar    1  UNL1       -0.1656
     10 N          65.6527   92.1414   14.0945 N.ar    1  UNL1       -0.2387
     11 C          64.9533   91.8712   12.7952 C.ar    1  UNL1        0.1109
     12 C          65.5283   91.3278   15.3485 C.3     1  UNL1        0.2116
     13 C          64.4277   91.6187   16.3251 C.2     1  UNL1        0.2443
     14 N          63.2664   90.6774   16.4487 N.am    1  UNL1       -0.3272
     15 O          64.4883   92.8510   17.1783 O.2     1  UNL1       -0.2732
     16 H          63.2265   89.8686   15.8888 H       1  UNL1        0.1450
     17 H          62.5440   90.8684   17.0897 H       1  UNL1        0.1450
     18 C          64.5527   87.4079   14.9752 C.3     1  UNL1        0.0340
     19 C          63.8143   87.1721   13.6910 C.ar    1  UNL1        0.0107
     20 C          63.5621   85.7714   13.2172 C.ar    1  UNL1        0.0958
     21 N          62.8236   85.5356   11.9330 N.ar    1  UNL1       -0.2440
     22 C          62.3375   86.7005   11.1226 C.ar    1  UNL1        0.0847
     23 C          62.5897   88.1011   11.5964 C.ar    1  UNL1        0.0335
     24 C          63.3280   88.3370   12.8806 C.ar    1  UNL1        0.0473
     25 C          61.5990   86.4647    9.8384 C.ar    1  UNL1        0.0460
     26 C          62.2393   85.6682    8.7404 C.ar    1  UNL1        0.0151
     27 C          61.5009   85.4324    7.4563 C.ar    1  UNL1        0.0579
     28 CL         62.1412   84.6359    6.3582 Cl      1  UNL1       -0.0822
     29 C          60.1222   85.9931    7.2701 C.ar    1  UNL1        0.0137
     30 C          59.4819   86.7896    8.3680 C.ar    1  UNL1        0.0306
     31 C          60.2203   87.0254    9.6522 C.ar    1  UNL1        0.1416
     32 F          59.5800   87.8219   10.7502 F       1  UNL1       -0.2041
@<TRIPOS>BOND
     1    18    19    1
     2    19    20   ar
     3    20    21   ar
     4    21    22   ar
     5    22    25    1
     6    25    26   ar
     7    26    27   ar
     8    27    28    1
     9    27    29   ar
    10    29    30   ar
    11    30    31   ar
    12    31    32    1
    13    22    23   ar
    14    23    24   ar
    15    24     1    1
    16     1     3    1
    17     3     4   ar
    18     4     5   ar
    19     5     6   ar
    20     6     7   ar
    21     7     8   ar
    22     8     9   ar
    23     9    10   ar
    24    10    12    1
    25    12    13    1
    26    13    14   am
    27    13    15    2
    28    10    11   ar
    29    24    19   ar
    30    11     3   ar
    31    31    25   ar
    32    11     7   ar
    33     1     2    1
    34    14    16    1
    35    14    17    1
@<TRIPOS>MOLECULE
*****
 32 35 0 0 0
SMALL
GASTEIGER

@<TRIPOS>ATOM
      1 N          64.4671   87.6429   14.2056 N.pl3   1  UNL1       -0.3115
      2 H          65.4465   87.5499   14.1677 H       1  UNL1        0.1523
      3 C          63.6994   87.0356   15.3423 C.ar    1  UNL1        0.0689
      4 C          63.3281   87.8742   16.5292 C.ar    1  UNL1        0.0368
      5 C          62.5605   87.2669   17.6658 C.ar    1  UNL1        0.1003
      6 N          62.1642   85.8211   17.6155 N.ar    1  UNL1       -0.2406
      7 C          62.5355   84.9825   16.4285 C.ar    1  UNL1        0.1206
      8 C          62.2846   83.5406   16.1003 C.ar    1  UNL1        0.1407
      9 N          62.8971   83.2566   14.7608 N.ar    1  UNL1       -0.1656
     10 N          63.5266   84.5231   14.2612 N.ar    1  UNL1       -0.2387
     11 C          63.3031   85.5898   15.2919 C.ar    1  UNL1        0.1109
     12 C          64.2523   84.6931   12.9594 C.3     1  UNL1        0.2116
     13 C          64.2325   83.5925   11.9405 C.2     1  UNL1        0.2443
     14 N          64.8212   82.2532   12.2716 N.am    1  UNL1       -0.3272
     15 O          63.6241   83.8313   10.5904 O.2     1  UNL1       -0.2732
     16 H          65.2205   82.0965   13.1578 H       1  UNL1        0.1450
     17 H          64.8082   81.5309   11.6028 H       1  UNL1        0.1450
     18 C          64.4711   90.6429   14.1997 C.3     1  UNL1        0.0340
     19 C          63.7446   89.8918   13.1237 C.ar    1  UNL1        0.0107
     20 C          63.0200   90.6407   12.0447 C.ar    1  UNL1        0.0958
     21 N          62.2934   89.8895   10.9686 N.ar    1  UNL1       -0.2440
     22 C          62.2914   88.3896   10.9716 C.ar    1  UNL1        0.0847
     23 C          63.0160   87.6407   12.0505 C.ar    1  UNL1        0.0335
     24 C          63.7425   88.3918   13.1266 C.ar    1  UNL1        0.0473
     25 C          61.5648   87.6384    9.8955 C.ar    1  UNL1        0.0460
     26 C          62.2940   86.6231    9.0664 C.ar    1  UNL1        0.0151
     27 C          61.5674   85.8720    7.9904 C.ar    1  UNL1        0.0579
     28 CL         62.2966   84.8567    7.1612 Cl      1  UNL1       -0.0822
     29 C          60.1116   86.1362    7.7435 C.ar    1  UNL1        0.0137
     30 C          59.3825   87.1514    8.5726 C.ar    1  UNL1        0.0306
     31 C          60.1090   87.9026    9.6486 C.ar    1  UNL1        0.1416
     32 F          59.3799   88.9179   10.4778 F       1  UNL1       -0.2041
@<TRIPOS>BOND
     1    18    19    1
     2    19    20   ar
     3    20    21   ar
     4    21    22   ar
     5    22    25    1
     6    25    26   ar
     7    26    27   ar
     8    27    28    1
     9    27    29   ar
    10    29    30   ar
    11    30    31   ar
    12    31    32    1
    13    22    23   ar
    14    23    24   ar
    15    24     1    1
    16     1     3    1
    17     3     4   ar
    18     4     5   ar
    19     5     6   ar
    20     6     7   ar
    21     7     8   ar
    22     8     9   ar
    23     9    10   ar
    24    10    12    1
    25    12    13    1
    26    13    14   am
    27    13    15    2
    28    10    11   ar
    29    24    19   ar
    30    11     3   ar
    31    31    25   ar
    32    11     7   ar
    33     1     2    1
    34    14    16    1
    35    14    17    1
@<TRIPOS>MOLECULE
*****
 32 35 0 0 0
SMALL
GASTEIGER

@<TRIPOS>ATOM
      1 N          62.3043   90.5525   12.7188 N.pl3   1  UNL1       -0.3115
      2 H          61.9452   90.7148   13.6210 H       1  UNL1        0.1523
      3 C          63.5736   91.2239   12.2849 C.ar    1  UNL1        0.0689
      4 C          63.7578   91.6248   10.8512 C.ar    1  UNL1        0.0368
      5 C          65.0270   92.2961   10.4173 C.ar    1  UNL1        0.1003
      6 N          66.1121   92.5666   11.4171 N.ar    1  UNL1       -0.2406
      7 C          65.9279   92.1657   12.8507 C.ar    1  UNL1        0.1206
      8 C          66.8148   92.3015   14.0528 C.ar    1  UNL1        0.1407
      9 N          66.0937   91.7141   15.2296 N.ar    1  UNL1       -0.1656
     10 N          64.7611   91.2152   14.7549 N.ar    1  UNL1       -0.2387
     11 C          64.6587   91.4943   13.2846 C.ar    1  UNL1        0.1109
     12 C          63.7147   90.5534   15.6017 C.3     1  UNL1        0.2116
     13 C          63.5773   89.0598   15.5930 C.2     1  UNL1        0.2443
     14 N          63.0606   88.3471   16.8075 N.am    1  UNL1       -0.3272
     15 O          63.9565   88.2788   14.3698 O.2     1  UNL1       -0.2732
     16 H          62.8117   88.8596   17.6104 H       1  UNL1        0.1450
     17 H          62.9704   87.3667   16.8018 H       1  UNL1        0.1450
     18 C          59.5381   91.2374   11.7812 C.3     1  UNL1        0.0340
     19 C          60.1992   89.9764   11.3094 C.ar    1  UNL1        0.0107
     20 C          59.4771   89.0577   10.3687 C.ar    1  UNL1        0.0958
     21 N          60.1383   87.7966    9.8969 N.ar    1  UNL1       -0.2440
     22 C          61.5213   87.4541   10.3657 C.ar    1  UNL1        0.0847
     23 C          62.2433   88.3728   11.3064 C.ar    1  UNL1        0.0335
     24 C          61.5823   89.6338   11.7782 C.ar    1  UNL1        0.0473
     25 C          62.1824   86.1930    9.8939 C.ar    1  UNL1        0.0460
     26 C          62.2539   85.8871    8.4272 C.ar    1  UNL1        0.0151
     27 C          62.9150   84.6260    7.9555 C.ar    1  UNL1        0.0579
     28 CL         62.9864   84.3200    6.4887 Cl      1  UNL1       -0.0822
     29 C          63.5046   83.6708    8.9505 C.ar    1  UNL1        0.0137
     30 C          63.4331   83.9767   10.4172 C.ar    1  UNL1        0.0306
     31 C          62.7721   85.2378   10.8889 C.ar    1  UNL1        0.1416
     32 F          62.7006   85.5438   12.3557 F       1  UNL1       -0.2041
@<TRIPOS>BOND
     1    18    19    1
     2    19    20   ar
     3    20    21   ar
     4    21    22   ar
     5    22    25    1
     6    25    26   ar
     7    26    27   ar
     8    27    28    1
     9    27    29   ar
    10    29    30   ar
    11    30    31   ar
    12    31    32    1
    13    22    23   ar
    14    23    24   ar
    15    24     1    1
    16     1     3    1
    17     3     4   ar
    18     4     5   ar
    19     5     6   ar
    20     6     7   ar
    21     7     8   ar
    22     8     9   ar
    23     9    10   ar
    24    10    12    1
    25    12    13    1
    26    13    14   am
    27    13    15    2
    28    10    11   ar
    29    24    19   ar
    30    11     3   ar
    31    31    25   ar
    32    11     7   ar
    33     1     2    1
    34    14    16    1
    35    14    17    1
@<TRIPOS>MOLECULE
*****
 32 35 0 0 0
SMALL
GASTEIGER

@<TRIPOS>ATOM
      1 N          62.5900   88.0350   12.5698 N.pl3   1  UNL1       -0.3115
      2 H          61.6381   87.9337   12.3397 H       1  UNL1        0.1523
      3 C          63.3464   86.8810   13.1581 C.ar    1  UNL1        0.0689
      4 C          64.2258   87.0926   14.3548 C.ar    1  UNL1        0.0368
      5 C          64.9821   85.9386   14.9431 C.ar    1  UNL1        0.1003
      6 N          64.8592   84.5730   14.3348 N.ar    1  UNL1       -0.2406
      7 C          63.9798   84.3614   13.1382 C.ar    1  UNL1        0.1206
      8 C          63.6632   83.1388   12.3289 C.ar    1  UNL1        0.1407
      9 N          62.7111   83.5372   11.2403 N.ar    1  UNL1       -0.1656
     10 N          62.4393   85.0060   11.3769 N.ar    1  UNL1       -0.2387
     11 C          63.2235   85.5154   12.5498 C.ar    1  UNL1        0.1109
     12 C          61.5411   85.8222   10.4953 C.3     1  UNL1        0.2116
     13 C          61.8159   85.9131    9.0235 C.2     1  UNL1        0.2443
     14 N          63.0661   85.3099    8.4552 N.am    1  UNL1       -0.3272
     15 O          60.8402   86.6073    8.1200 O.2     1  UNL1       -0.2732
     16 H          63.7064   84.8543    9.0482 H       1  UNL1        0.1450
     17 H          63.2463   85.3696    7.4892 H       1  UNL1        0.1450
     18 C          62.0288   89.5980   10.0713 C.3     1  UNL1        0.0340
     19 C          63.0033   90.1249   11.0826 C.ar    1  UNL1        0.0107
     20 C          63.6972   91.4333   10.8447 C.ar    1  UNL1        0.0958
     21 N          64.6717   91.9602   11.8561 N.ar    1  UNL1       -0.2440
     22 C          64.9523   91.1787   13.1052 C.ar    1  UNL1        0.0847
     23 C          64.2584   89.8703   13.3431 C.ar    1  UNL1        0.0335
     24 C          63.2839   89.3434   12.3319 C.ar    1  UNL1        0.0473
     25 C          65.9268   91.7056   14.1166 C.ar    1  UNL1        0.0460
     26 C          67.3653   91.9028   13.7401 C.ar    1  UNL1        0.0151
     27 C          68.3398   92.4297   14.7515 C.ar    1  UNL1        0.0579
     28 CL         69.7784   92.6269   14.3750 Cl      1  UNL1       -0.0822
     29 C          67.8757   92.7592   16.1393 C.ar    1  UNL1        0.0137
     30 C          66.4372   92.5620   16.5158 C.ar    1  UNL1        0.0306
     31 C          65.4628   92.0351   15.5044 C.ar    1  UNL1        0.1416
     32 F          64.0242   91.8379   15.8809 F       1  UNL1       -0.2041
@<TRIPOS>BOND
     1    18    19    1
     2    19    20   ar
     3    20    21   ar
     4    21    22   ar
     5    22    25    1
     6    25    26   ar
     7    26    27   ar
     8    27    28    1
     9    27    29   ar
    10    29    30   ar
    11    30    31   ar
    12    31    32    1
    13    22    23   ar
    14    23    24   ar
    15    24     1    1
    16     1     3    1
    17     3     4   ar
    18     4     5   ar
    19     5     6   ar
    20     6     7   ar
    21     7     8   ar
    22     8     9   ar
    23     9    10   ar
    24    10    12    1
    25    12    13    1
    26    13    14   am
    27    13    15    2
    28    10    11   ar
    29    24    19   ar
    30    11     3   ar
    31    31    25   ar
    32    11     7   ar
    33     1     2    1
    34    14    16    1
    35    14    17    1
