@<TRIPOS>MOLECULE
*****
 27 29 0 0 0
SMALL
GASTEIGER

@<TRIPOS>ATOM
      1 C          62.6957   89.3962   11.0375 C.ar    1  UNL1        0.1485
      2 C          62.5186   89.2404   12.5188 C.ar    1  UNL1        0.0797
      3 C          63.2505   90.1492   13.4612 C.ar    1  UNL1        0.2047
      4 O          63.0734   89.9935   14.9426 O.2     1  UNL1       -0.2862
      5 C          64.1595   91.2138   12.9224 C.ar    1  UNL1        0.1104
      6 C          64.8915   92.1227   13.8650 C.ar    1  UNL1        0.1769
      7 O          64.7144   91.9669   15.3463 O.3     1  UNL1       -0.5027
      8 C          65.8005   93.1872   13.3261 C.ar    1  UNL1        0.2061
      9 C          65.9776   93.3430   11.8447 C.ar    1  UNL1        0.1785
     10 C          65.2457   92.4341   10.9022 C.ar    1  UNL1        0.0778
     11 C          64.3367   91.3696   11.4411 C.ar    1  UNL1        0.1545
     12 O          63.6047   90.4607   10.4986 O.2     1  UNL1       -0.4531
     13 H          64.1465   91.3019   15.6828 H       1  UNL1        0.2923
     14 C          60.4999   86.6697    8.2098 C.ar    1  UNL1        0.1724
     15 C          61.6101   86.1298    9.0619 C.ar    1  UNL1        0.0401
     16 C          62.3420   87.0386   10.0045 C.ar    1  UNL1        0.0064
     17 C          61.9638   88.4873   10.0949 C.ar    1  UNL1        0.0379
     18 C          60.8537   89.0272    9.2428 C.ar    1  UNL1        0.0431
     19 C          60.1217   88.1185    8.3003 C.ar    1  UNL1        0.1725
     20 C          60.5204   84.7183    6.4948 C.3     1  UNL1        0.2526
     21 O          59.7680   85.7609    7.2673 O.3     1  UNL1       -0.4684
     22 O          59.0116   88.6584    7.4481 O.3     1  UNL1       -0.4684
     23 C          59.3157   89.6334    6.3496 C.3     1  UNL1        0.2526
     24 O          66.5324   94.0961   14.2686 O.3     1  UNL1       -0.4654
     25 C          67.6077   93.5457   15.1579 C.3     1  UNL1        0.2528
     26 O          66.8866   94.4075   11.3059 O.3     1  UNL1       -0.4682
     27 C          66.3208   95.7262   10.8688 C.3     1  UNL1        0.2526
@<TRIPOS>BOND
     1    20    21    1
     2    21    14    1
     3    14    15   ar
     4    15    16   ar
     5    16    17   ar
     6    17     1    1
     7     1     2   ar
     8     2     3   ar
     9     3     4    2
    10     3     5   ar
    11     5     6   ar
    12     6     7    1
    13     6     8   ar
    14     8    24    1
    15    24    25    1
    16     8     9   ar
    17     9    26    1
    18    26    27    1
    19     9    10   ar
    20    10    11   ar
    21    11    12   ar
    22    17    18   ar
    23    18    19   ar
    24    19    22    1
    25    22    23    1
    26    19    14   ar
    27    12     1   ar
    28    11     5   ar
    29     7    13    1
@<TRIPOS>MOLECULE
*****
 27 29 0 0 0
SMALL
GASTEIGER

@<TRIPOS>ATOM
      1 C          63.7669   90.0995   12.5214 C.ar    1  UNL1        0.1485
      2 C          63.7994   88.6478   12.8976 C.ar    1  UNL1        0.0797
      3 C          62.9071   87.6701   12.1920 C.ar    1  UNL1        0.2047
      4 O          62.9395   86.2184   12.5682 O.2     1  UNL1       -0.2862
      5 C          61.9824   88.1441   11.1102 C.ar    1  UNL1        0.1104
      6 C          61.0901   87.1663   10.4046 C.ar    1  UNL1        0.1769
      7 O          61.1225   85.7147   10.7808 O.3     1  UNL1       -0.5027
      8 C          60.1653   87.6403    9.3229 C.ar    1  UNL1        0.2061
      9 C          60.1329   89.0921    8.9467 C.ar    1  UNL1        0.1785
     10 C          61.0252   90.0698    9.6523 C.ar    1  UNL1        0.0778
     11 C          61.9499   89.5958   10.7341 C.ar    1  UNL1        0.1545
     12 O          62.8422   90.5735   11.4397 O.2     1  UNL1       -0.4531
     13 H          61.7002   85.4186   11.4566 H       1  UNL1        0.2923
     14 C          66.4438   93.0328   14.6382 C.ar    1  UNL1        0.1724
     15 C          65.8171   91.9036   15.4011 C.ar    1  UNL1        0.0401
     16 C          64.9248   90.9258   14.6955 C.ar    1  UNL1        0.0064
     17 C          64.6592   91.0773   13.2270 C.ar    1  UNL1        0.0379
     18 C          65.2859   92.2065   12.4641 C.ar    1  UNL1        0.0431
     19 C          66.1782   93.1843   13.1696 C.ar    1  UNL1        0.1725
     20 C          68.6985   93.5851   15.8047 C.3     1  UNL1        0.2526
     21 O          67.3361   94.0106   15.3437 O.3     1  UNL1       -0.4684
     22 O          66.8049   94.3135   12.4066 O.3     1  UNL1       -0.4684
     23 C          66.1179   94.8733   11.1964 C.3     1  UNL1        0.2526
     24 O          59.2731   86.6626    8.6173 O.3     1  UNL1       -0.4654
     25 C          59.7869   85.8967    7.4343 C.3     1  UNL1        0.2528
     26 O          59.2082   89.5660    7.8649 O.3     1  UNL1       -0.4682
     27 C          59.6575   89.5500    6.4339 C.3     1  UNL1        0.2526
@<TRIPOS>BOND
     1    20    21    1
     2    21    14    1
     3    14    15   ar
     4    15    16   ar
     5    16    17   ar
     6    17     1    1
     7     1     2   ar
     8     2     3   ar
     9     3     4    2
    10     3     5   ar
    11     5     6   ar
    12     6     7    1
    13     6     8   ar
    14     8    24    1
    15    24    25    1
    16     8     9   ar
    17     9    26    1
    18    26    27    1
    19     9    10   ar
    20    10    11   ar
    21    11    12   ar
    22    17    18   ar
    23    18    19   ar
    24    19    22    1
    25    22    23    1
    26    19    14   ar
    27    12     1   ar
    28    11     5   ar
    29     7    13    1
@<TRIPOS>MOLECULE
*****
 27 29 0 0 0
SMALL
GASTEIGER

@<TRIPOS>ATOM
      1 C          64.0142   88.0268   14.2420 C.ar    1  UNL1        0.1485
      2 C          63.8010   87.6214   15.6703 C.ar    1  UNL1        0.0797
      3 C          63.4112   86.2108   15.9993 C.ar    1  UNL1        0.2047
      4 O          63.1979   85.8053   17.4276 O.2     1  UNL1       -0.2862
      5 C          63.2346   85.2057   14.8999 C.ar    1  UNL1        0.1104
      6 C          62.8448   83.7950   15.2290 C.ar    1  UNL1        0.1769
      7 O          62.6315   83.3896   16.6573 O.3     1  UNL1       -0.5027
      8 C          62.6682   82.7899   14.1297 C.ar    1  UNL1        0.2061
      9 C          62.8814   83.1954   12.7013 C.ar    1  UNL1        0.1785
     10 C          63.2712   84.6060   12.3723 C.ar    1  UNL1        0.0778
     11 C          63.4478   85.6111   13.4716 C.ar    1  UNL1        0.1545
     12 O          63.8376   87.0217   13.1427 O.2     1  UNL1       -0.4531
     13 H          62.7419   84.0175   17.3440 H       1  UNL1        0.2923
     14 C          65.1837   92.2587   13.2549 C.ar    1  UNL1        0.1724
     15 C          64.2237   91.5200   12.3700 C.ar    1  UNL1        0.0401
     16 C          63.8339   90.1094   12.6991 C.ar    1  UNL1        0.0064
     17 C          64.4040   89.4375   13.9129 C.ar    1  UNL1        0.0379
     18 C          65.3639   90.1761   14.7978 C.ar    1  UNL1        0.0431
     19 C          65.7537   91.5867   14.4688 C.ar    1  UNL1        0.1725
     20 C          66.1311   93.9970   11.5725 C.3     1  UNL1        0.2526
     21 O          65.5735   93.6692   12.9259 O.3     1  UNL1       -0.4684
     22 O          66.7137   92.3253   15.3536 O.3     1  UNL1       -0.4684
     23 C          68.1744   92.3568   15.0141 C.3     1  UNL1        0.2526
     24 O          62.2784   81.3793   14.4587 O.3     1  UNL1       -0.4654
     25 C          60.8936   80.8924   14.1499 C.3     1  UNL1        0.2528
     26 O          62.7048   82.1902   11.6020 O.3     1  UNL1       -0.4682
     27 C          63.7401   82.0689   10.5232 C.3     1  UNL1        0.2526
@<TRIPOS>BOND
     1    20    21    1
     2    21    14    1
     3    14    15   ar
     4    15    16   ar
     5    16    17   ar
     6    17     1    1
     7     1     2   ar
     8     2     3   ar
     9     3     4    2
    10     3     5   ar
    11     5     6   ar
    12     6     7    1
    13     6     8   ar
    14     8    24    1
    15    24    25    1
    16     8     9   ar
    17     9    26    1
    18    26    27    1
    19     9    10   ar
    20    10    11   ar
    21    11    12   ar
    22    17    18   ar
    23    18    19   ar
    24    19    22    1
    25    22    23    1
    26    19    14   ar
    27    12     1   ar
    28    11     5   ar
    29     7    13    1
@<TRIPOS>MOLECULE
*****
 27 29 0 0 0
SMALL
GASTEIGER

@<TRIPOS>ATOM
      1 C          63.1027   89.7787   11.7675 C.ar    1  UNL1        0.1485
      2 C          63.2485   89.4790   13.2299 C.ar    1  UNL1        0.0797
      3 C          64.1155   90.3490   14.0909 C.ar    1  UNL1        0.2047
      4 O          64.2614   90.0493   15.5535 O.2     1  UNL1       -0.2862
      5 C          64.8366   91.5187   13.4895 C.ar    1  UNL1        0.1104
      6 C          65.7037   92.3887   14.3506 C.ar    1  UNL1        0.1769
      7 O          65.8495   92.0890   15.8131 O.3     1  UNL1       -0.5027
      8 C          66.4248   93.5584   13.7492 C.ar    1  UNL1        0.2061
      9 C          66.2789   93.8581   12.2866 C.ar    1  UNL1        0.1785
     10 C          65.4119   92.9881   11.4256 C.ar    1  UNL1        0.0778
     11 C          64.6908   91.8184   12.0270 C.ar    1  UNL1        0.1545
     12 O          63.8238   90.9484   11.1660 O.2     1  UNL1       -0.4531
     13 H          65.3990   91.3583   16.1888 H       1  UNL1        0.2923
     14 C          60.5017   87.1686    9.1842 C.ar    1  UNL1        0.1724
     15 C          60.4517   88.6602    9.0339 C.ar    1  UNL1        0.0401
     16 C          61.3188   89.5303    9.8950 C.ar    1  UNL1        0.0064
     17 C          62.2357   88.9087   10.9064 C.ar    1  UNL1        0.0379
     18 C          62.2856   87.4170   11.0566 C.ar    1  UNL1        0.0431
     19 C          61.4187   86.5470   10.1956 C.ar    1  UNL1        0.1725
     20 C          60.2356   85.5431    7.1751 C.3     1  UNL1        0.2526
     21 O          59.6348   86.2986    8.3232 O.3     1  UNL1       -0.4684
     22 O          61.4687   85.0554   10.3459 O.3     1  UNL1       -0.4684
     23 C          62.5436   84.4210   11.1777 C.3     1  UNL1        0.2526
     24 O          67.2918   94.4284   14.6102 O.3     1  UNL1       -0.4654
     25 C          68.3525   93.8110   15.4726 C.3     1  UNL1        0.2528
     26 O          67.0001   95.0278   11.6852 O.3     1  UNL1       -0.4682
     27 C          67.0029   95.2231   10.1979 C.3     1  UNL1        0.2526
@<TRIPOS>BOND
     1    20    21    1
     2    21    14    1
     3    14    15   ar
     4    15    16   ar
     5    16    17   ar
     6    17     1    1
     7     1     2   ar
     8     2     3   ar
     9     3     4    2
    10     3     5   ar
    11     5     6   ar
    12     6     7    1
    13     6     8   ar
    14     8    24    1
    15    24    25    1
    16     8     9   ar
    17     9    26    1
    18    26    27    1
    19     9    10   ar
    20    10    11   ar
    21    11    12   ar
    22    17    18   ar
    23    18    19   ar
    24    19    22    1
    25    22    23    1
    26    19    14   ar
    27    12     1   ar
    28    11     5   ar
    29     7    13    1
@<TRIPOS>MOLECULE
*****
 27 29 0 0 0
SMALL
GASTEIGER

@<TRIPOS>ATOM
      1 C          64.0078   87.9976   14.1981 C.ar    1  UNL1        0.1485
      2 C          63.8031   87.6142   15.6337 C.ar    1  UNL1        0.0797
      3 C          63.4151   86.2089   15.9867 C.ar    1  UNL1        0.2047
      4 O          63.2103   85.8255   17.4224 O.2     1  UNL1       -0.2862
      5 C          63.2318   85.1871   14.9040 C.ar    1  UNL1        0.1104
      6 C          62.8438   83.7817   15.2571 C.ar    1  UNL1        0.1769
      7 O          62.6390   83.3983   16.6927 O.3     1  UNL1       -0.5027
      8 C          62.6605   82.7598   14.1744 C.ar    1  UNL1        0.2061
      9 C          62.8652   83.1433   12.7387 C.ar    1  UNL1        0.1785
     10 C          63.2532   84.5485   12.3858 C.ar    1  UNL1        0.0778
     11 C          63.4365   85.5704   13.4684 C.ar    1  UNL1        0.1545
     12 O          63.8245   86.9757   13.1155 O.2     1  UNL1       -0.4531
     13 H          62.7535   84.0367   17.3690 H       1  UNL1        0.2923
     14 C          65.1718   92.2135   13.1390 C.ar    1  UNL1        0.1724
     15 C          65.6736   91.5936   14.4094 C.ar    1  UNL1        0.0401
     16 C          65.2855   90.1883   14.7624 C.ar    1  UNL1        0.0064
     17 C          64.3958   89.4029   13.8451 C.ar    1  UNL1        0.0379
     18 C          63.8941   90.0228   12.5747 C.ar    1  UNL1        0.0431
     19 C          64.2821   91.4281   12.2216 C.ar    1  UNL1        0.1725
     20 C          66.4922   93.8737   11.6389 C.3     1  UNL1        0.2526
     21 O          65.5598   93.6187   12.7859 O.3     1  UNL1       -0.4684
     22 O          63.7803   92.0480   10.9512 O.3     1  UNL1       -0.4684
     23 C          62.9482   91.2401   10.0001 C.3     1  UNL1        0.2526
     24 O          62.2725   81.3546   14.5274 O.3     1  UNL1       -0.4654
     25 C          60.9063   80.8433   14.1776 C.3     1  UNL1        0.2528
     26 O          62.6820   82.1214   11.6561 O.3     1  UNL1       -0.4682
     27 C          63.6605   82.0470   10.5215 C.3     1  UNL1        0.2526
@<TRIPOS>BOND
     1    20    21    1
     2    21    14    1
     3    14    15   ar
     4    15    16   ar
     5    16    17   ar
     6    17     1    1
     7     1     2   ar
     8     2     3   ar
     9     3     4    2
    10     3     5   ar
    11     5     6   ar
    12     6     7    1
    13     6     8   ar
    14     8    24    1
    15    24    25    1
    16     8     9   ar
    17     9    26    1
    18    26    27    1
    19     9    10   ar
    20    10    11   ar
    21    11    12   ar
    22    17    18   ar
    23    18    19   ar
    24    19    22    1
    25    22    23    1
    26    19    14   ar
    27    12     1   ar
    28    11     5   ar
    29     7    13    1
@<TRIPOS>MOLECULE
*****
 27 29 0 0 0
SMALL
GASTEIGER

@<TRIPOS>ATOM
      1 C          63.3212   85.1435   14.0579 C.ar    1  UNL1        0.1485
      2 C          63.1764   85.2115   15.5493 C.ar    1  UNL1        0.0797
      3 C          63.2378   86.5368   16.2491 C.ar    1  UNL1        0.2047
      4 O          63.0930   86.6048   17.7406 O.2     1  UNL1       -0.2862
      5 C          63.4441   87.7940   15.4575 C.ar    1  UNL1        0.1104
      6 C          63.5055   89.1194   16.1573 C.ar    1  UNL1        0.1769
      7 O          63.3607   89.1874   17.6487 O.3     1  UNL1       -0.5027
      8 C          63.7118   90.3767   15.3657 C.ar    1  UNL1        0.2061
      9 C          63.8566   90.3086   13.8742 C.ar    1  UNL1        0.1785
     10 C          63.7952   88.9833   13.1744 C.ar    1  UNL1        0.0778
     11 C          63.5889   87.7260   13.9661 C.ar    1  UNL1        0.1545
     12 O          63.5275   86.4008   13.2663 O.2     1  UNL1       -0.4531
     13 H          63.2319   88.4020   18.1432 H       1  UNL1        0.2923
     14 C          63.1369   81.1675   11.9583 C.ar    1  UNL1        0.1724
     15 C          63.9636   82.2804   11.3857 C.ar    1  UNL1        0.0401
     16 C          64.0251   83.6057   12.0855 C.ar    1  UNL1        0.0064
     17 C          63.2598   83.8181   13.3580 C.ar    1  UNL1        0.0379
     18 C          62.4331   82.7052   13.9307 C.ar    1  UNL1        0.0431
     19 C          62.3716   81.3799   13.2309 C.ar    1  UNL1        0.1725
     20 C          62.8396   79.7859    9.7783 C.3     1  UNL1        0.2526
     21 O          63.0755   79.8422   11.2585 O.3     1  UNL1       -0.4684
     22 O          61.5449   80.2670   13.8035 O.3     1  UNL1       -0.4684
     23 C          60.1112   80.5103   14.1711 C.3     1  UNL1        0.2526
     24 O          63.7732   91.7020   16.0655 O.3     1  UNL1       -0.4654
     25 C          65.0940   92.2508   16.5180 C.3     1  UNL1        0.2528
     26 O          64.0629   91.5659   13.0826 O.3     1  UNL1       -0.4682
     27 C          65.4492   92.0957   12.8641 C.3     1  UNL1        0.2526
@<TRIPOS>BOND
     1    20    21    1
     2    21    14    1
     3    14    15   ar
     4    15    16   ar
     5    16    17   ar
     6    17     1    1
     7     1     2   ar
     8     2     3   ar
     9     3     4    2
    10     3     5   ar
    11     5     6   ar
    12     6     7    1
    13     6     8   ar
    14     8    24    1
    15    24    25    1
    16     8     9   ar
    17     9    26    1
    18    26    27    1
    19     9    10   ar
    20    10    11   ar
    21    11    12   ar
    22    17    18   ar
    23    18    19   ar
    24    19    22    1
    25    22    23    1
    26    19    14   ar
    27    12     1   ar
    28    11     5   ar
    29     7    13    1
@<TRIPOS>MOLECULE
*****
 27 29 0 0 0
SMALL
GASTEIGER

@<TRIPOS>ATOM
      1 C          63.0717   86.3892   13.0061 C.ar    1  UNL1        0.1485
      2 C          62.5282   86.9827   11.7403 C.ar    1  UNL1        0.0797
      3 C          62.7727   88.4285   11.4245 C.ar    1  UNL1        0.2047
      4 O          62.2292   89.0221   10.1587 O.2     1  UNL1       -0.2862
      5 C          63.5607   89.2808   12.3746 C.ar    1  UNL1        0.1104
      6 C          63.8052   90.7268   12.0588 C.ar    1  UNL1        0.1769
      7 O          63.2617   91.3203   10.7930 O.3     1  UNL1       -0.5027
      8 C          64.5931   91.5791   13.0089 C.ar    1  UNL1        0.2061
      9 C          65.1366   90.9855   14.2748 C.ar    1  UNL1        0.1785
     10 C          64.8921   89.5396   14.5905 C.ar    1  UNL1        0.0778
     11 C          64.1042   88.6873   13.6404 C.ar    1  UNL1        0.1545
     12 O          63.8597   87.2415   13.9562 O.2     1  UNL1       -0.4531
     13 H          62.7695   90.7879   10.1996 H       1  UNL1        0.2923
     14 C          62.3383   82.0515   13.9534 C.ar    1  UNL1        0.1724
     15 C          62.2550   83.0812   15.0409 C.ar    1  UNL1        0.0401
     16 C          62.4995   84.5271   14.7252 C.ar    1  UNL1        0.0064
     17 C          62.8272   84.9433   13.3219 C.ar    1  UNL1        0.0379
     18 C          62.9105   83.9136   12.2343 C.ar    1  UNL1        0.0431
     19 C          62.6660   82.4678   12.5500 C.ar    1  UNL1        0.1725
     20 C          60.7150   80.0310   14.1326 C.3     1  UNL1        0.2526
     21 O          62.0938   80.6057   14.2691 O.3     1  UNL1       -0.4684
     22 O          62.7493   81.4381   11.4624 O.3     1  UNL1       -0.4684
     23 C          63.7088   81.6248   10.3247 C.3     1  UNL1        0.2526
     24 O          64.8376   93.0249   12.6932 O.3     1  UNL1       -0.4654
     25 C          66.0710   93.4304   11.9419 C.3     1  UNL1        0.2528
     26 O          65.9246   91.8378   15.2249 O.3     1  UNL1       -0.4682
     27 C          67.4213   91.8763   15.1331 C.3     1  UNL1        0.2526
@<TRIPOS>BOND
     1    20    21    1
     2    21    14    1
     3    14    15   ar
     4    15    16   ar
     5    16    17   ar
     6    17     1    1
     7     1     2   ar
     8     2     3   ar
     9     3     4    2
    10     3     5   ar
    11     5     6   ar
    12     6     7    1
    13     6     8   ar
    14     8    24    1
    15    24    25    1
    16     8     9   ar
    17     9    26    1
    18    26    27    1
    19     9    10   ar
    20    10    11   ar
    21    11    12   ar
    22    17    18   ar
    23    18    19   ar
    24    19    22    1
    25    22    23    1
    26    19    14   ar
    27    12     1   ar
    28    11     5   ar
    29     7    13    1
@<TRIPOS>MOLECULE
*****
 27 29 0 0 0
SMALL
GASTEIGER

@<TRIPOS>ATOM
      1 C          62.9215   85.5037   11.9602 C.ar    1  UNL1        0.1485
      2 C          62.3228   86.2483   10.8038 C.ar    1  UNL1        0.0797
      3 C          62.4012   87.7454   10.7544 C.ar    1  UNL1        0.2047
      4 O          61.8025   88.4900    9.5980 O.2     1  UNL1       -0.2862
      5 C          63.0783   88.4979   11.8613 C.ar    1  UNL1        0.1104
      6 C          63.1567   89.9951   11.8118 C.ar    1  UNL1        0.1769
      7 O          62.5580   90.7397   10.6555 O.3     1  UNL1       -0.5027
      8 C          63.8338   90.7477   12.9187 C.ar    1  UNL1        0.2061
      9 C          64.4325   90.0030   14.0751 C.ar    1  UNL1        0.1785
     10 C          64.3541   88.5059   14.1245 C.ar    1  UNL1        0.0778
     11 C          63.6770   87.7534   13.0176 C.ar    1  UNL1        0.1545
     12 O          63.5986   86.2563   13.0671 O.2     1  UNL1       -0.4531
     13 H          62.1350   90.2695    9.9640 H       1  UNL1        0.2923
     14 C          62.6864   81.0123   12.1087 C.ar    1  UNL1        0.1724
     15 C          63.3266   81.6913   10.9344 C.ar    1  UNL1        0.0401
     16 C          63.4050   83.1885   10.8850 C.ar    1  UNL1        0.0064
     17 C          62.8431   84.0065   12.0097 C.ar    1  UNL1        0.0379
     18 C          62.2028   83.3275   13.1839 C.ar    1  UNL1        0.0431
     19 C          62.1244   81.8304   13.2335 C.ar    1  UNL1        0.1725
     20 C          62.6866   78.7177   10.8903 C.3     1  UNL1        0.2526
     21 O          62.6080   79.5152   12.1582 O.3     1  UNL1       -0.4684
     22 O          61.4841   81.1513   14.4077 O.3     1  UNL1       -0.4684
     23 C          60.1828   80.4253   14.2364 C.3     1  UNL1        0.2526
     24 O          63.9122   92.2448   12.8692 O.3     1  UNL1       -0.4654
     25 C          65.0678   92.9131   12.1851 C.3     1  UNL1        0.2528
     26 O          65.1096   90.7556   15.1820 O.3     1  UNL1       -0.4682
     27 C          66.4902   91.3061   14.9795 C.3     1  UNL1        0.2526
@<TRIPOS>BOND
     1    20    21    1
     2    21    14    1
     3    14    15   ar
     4    15    16   ar
     5    16    17   ar
     6    17     1    1
     7     1     2   ar
     8     2     3   ar
     9     3     4    2
    10     3     5   ar
    11     5     6   ar
    12     6     7    1
    13     6     8   ar
    14     8    24    1
    15    24    25    1
    16     8     9   ar
    17     9    26    1
    18    26    27    1
    19     9    10   ar
    20    10    11   ar
    21    11    12   ar
    22    17    18   ar
    23    18    19   ar
    24    19    22    1
    25    22    23    1
    26    19    14   ar
    27    12     1   ar
    28    11     5   ar
    29     7    13    1
@<TRIPOS>MOLECULE
*****
 27 29 0 0 0
SMALL
GASTEIGER

@<TRIPOS>ATOM
      1 C          63.2069   90.5063   11.1549 C.ar    1  UNL1        0.1485
      2 C          63.9790   91.4266   10.2567 C.ar    1  UNL1        0.0797
      3 C          65.0045   92.3548   10.8369 C.ar    1  UNL1        0.2047
      4 O          65.7766   93.2752    9.9387 O.2     1  UNL1       -0.2862
      5 C          65.2579   92.3627   12.3153 C.ar    1  UNL1        0.1104
      6 C          66.2835   93.2910   12.8955 C.ar    1  UNL1        0.1769
      7 O          67.0556   94.2113   11.9973 O.3     1  UNL1       -0.5027
      8 C          66.5369   93.2989   14.3739 C.ar    1  UNL1        0.2061
      9 C          65.7647   92.3785   15.2721 C.ar    1  UNL1        0.1785
     10 C          64.7392   91.4503   14.6919 C.ar    1  UNL1        0.0778
     11 C          64.4858   91.4424   13.2135 C.ar    1  UNL1        0.1545
     12 O          63.4603   90.5142   12.6333 O.2     1  UNL1       -0.4531
     13 H          66.8973   94.2064   11.0738 H       1  UNL1        0.2923
     14 C          60.1302   87.7214    9.4144 C.ar    1  UNL1        0.1724
     15 C          60.0923   89.1834    9.0812 C.ar    1  UNL1        0.0401
     16 C          61.1179   90.1117    9.6614 C.ar    1  UNL1        0.0064
     17 C          62.1813   89.5780   10.5747 C.ar    1  UNL1        0.0379
     18 C          62.2192   88.1159   10.9079 C.ar    1  UNL1        0.0431
     19 C          61.1937   87.1877   10.3278 C.ar    1  UNL1        0.1725
     20 C          59.1480   86.4449    7.3759 C.3     1  UNL1        0.2526
     21 O          59.1047   86.7931    8.8343 O.3     1  UNL1       -0.4684
     22 O          61.2316   85.7256   10.6610 O.3     1  UNL1       -0.4684
     23 C          62.3470   85.1763   11.5001 C.3     1  UNL1        0.2526
     24 O          67.5624   94.2271   14.9541 O.3     1  UNL1       -0.4654
     25 C          68.7787   93.6709   15.6333 C.3     1  UNL1        0.2528
     26 O          66.0181   92.3864   16.7506 O.3     1  UNL1       -0.4682
     27 C          64.8668   92.4700   17.7084 C.3     1  UNL1        0.2526
@<TRIPOS>BOND
     1    20    21    1
     2    21    14    1
     3    14    15   ar
     4    15    16   ar
     5    16    17   ar
     6    17     1    1
     7     1     2   ar
     8     2     3   ar
     9     3     4    2
    10     3     5   ar
    11     5     6   ar
    12     6     7    1
    13     6     8   ar
    14     8    24    1
    15    24    25    1
    16     8     9   ar
    17     9    26    1
    18    26    27    1
    19     9    10   ar
    20    10    11   ar
    21    11    12   ar
    22    17    18   ar
    23    18    19   ar
    24    19    22    1
    25    22    23    1
    26    19    14   ar
    27    12     1   ar
    28    11     5   ar
    29     7    13    1
