@<TRIPOS>MOLECULE
*****
 41 45 0 0 0
SMALL
GASTEIGER

@<TRIPOS>ATOM
      1 C          62.5359   89.5960   11.3868 C.2     1  UNL1        0.2411
      2 O          61.7414   90.4265   12.3506 O.2     1  UNL1       -0.2733
      3 N          63.7229   90.1889   10.6872 N.am    1  UNL1       -0.2966
      4 H          64.2443   89.6438   10.0545 H       1  UNL1        0.1499
      5 C          62.1433   88.1726   11.1225 C.3     1  UNL1        0.1554
      6 C          63.5403   87.3459   13.1511 C.2     1  UNL1        0.4017
      7 O          63.5975   88.7473   13.6828 O.2     1  UNL1       -0.2264
      8 N          62.8132   87.0585   11.8709 N.am    1  UNL1       -0.2637
      9 H          62.7757   86.1387   11.5218 H       1  UNL1        0.1532
     10 O          64.2102   86.2318   13.8994 O.3     1  UNL1       -0.4419
     11 C          63.1005   84.4967   13.3920 C.3     1  UNL1        0.0437
     12 C          63.3852   85.2394   14.6637 C.3     1  UNL1        0.1378
     13 C          63.6699   85.9821   15.9354 C.3     1  UNL1        0.0437
     14 C          62.5601   84.2468   15.4281 C.3     1  UNL1        0.0437
     15 C          61.0808   87.8633   10.1098 C.3     1  UNL1        0.0562
     16 C          61.3365   86.8400    9.0432 C.ar    1  UNL1       -0.0094
     17 C          62.6828   86.1871    8.9375 C.ar    1  UNL1       -0.0034
     18 C          62.9384   85.1639    7.8709 C.ar    1  UNL1       -0.0003
     19 C          61.8478   84.7937    6.9099 C.ar    1  UNL1        0.0008
     20 C          60.5016   85.4466    7.0156 C.ar    1  UNL1        0.0111
     21 C          60.2459   86.4698    8.0822 C.ar    1  UNL1        0.0538
     22 CL         58.8996   87.1228    8.1879 Cl      1  UNL1       -0.0826
     23 C          64.1154   91.6123   10.9514 C.3     1  UNL1        0.1543
     24 C          64.9824   91.9448   12.1294 C.ar    1  UNL1        0.1417
     25 N          64.5850   91.8464   13.5724 N.ar    1  UNL1       -0.2276
     26 C          65.7560   92.2750   14.4061 C.ar    1  UNL1        0.1167
     27 C          65.9462   92.3813   15.8902 C.ar    1  UNL1        0.0238
     28 C          67.2577   92.8510   16.4464 C.ar    1  UNL1        0.0223
     29 C          68.3789   93.2143   15.5186 C.ar    1  UNL1        0.1006
     30 N          68.1887   93.1080   14.0346 N.ar    1  UNL1       -0.2252
     31 C          66.8773   92.6383   13.4783 C.ar    1  UNL1        0.1626
     32 N          66.3991   92.4343   12.0712 N.ar    1  UNL1       -0.2990
     33 C          67.1976   92.6771   10.8248 C.3     1  UNL1        0.0898
     34 C          68.1519   92.4362    9.6929 C.3     1  UNL1        0.0273
     35 C          67.9238   91.3686   10.7216 C.3     1  UNL1        0.0273
     36 C          66.7488   94.0699   10.4952 C.ar    1  UNL1       -0.0037
     37 C          66.8858   94.5903    9.0951 C.ar    1  UNL1       -0.0025
     38 C          66.4370   95.9832    8.7654 C.ar    1  UNL1       -0.0003
     39 C          65.8513   96.8555    9.8359 C.ar    1  UNL1       -0.0000
     40 C          65.7143   96.3350   11.2360 C.ar    1  UNL1       -0.0003
     41 C          66.1631   94.9422   11.5657 C.ar    1  UNL1       -0.0025
@<TRIPOS>BOND
     1    11    12    1
     2    12    13    1
     3    12    14    1
     4    12    10    1
     5    10     6    1
     6     6     7    2
     7     6     8   am
     8     8     5    1
     9     5    15    1
    10    15    16    1
    11    16    17   ar
    12    17    18   ar
    13    18    19   ar
    14    19    20   ar
    15    20    21   ar
    16    21    22    1
    17     5     1    1
    18     1     2    2
    19     1     3   am
    20     3    23    1
    21    23    24    1
    22    24    25   ar
    23    25    26   ar
    24    26    27   ar
    25    27    28   ar
    26    28    29   ar
    27    29    30   ar
    28    30    31   ar
    29    31    32   ar
    30    32    33    1
    31    33    36    1
    32    36    37   ar
    33    37    38   ar
    34    38    39   ar
    35    39    40   ar
    36    40    41   ar
    37    33    34    1
    38    34    35    1
    39    21    16   ar
    40    32    24   ar
    41    35    33    1
    42    31    26   ar
    43    41    36   ar
    44     8     9    1
    45     3     4    1
@<TRIPOS>MOLECULE
*****
 41 45 0 0 0
SMALL
GASTEIGER

@<TRIPOS>ATOM
      1 C          64.0130   91.4364   12.1033 C.2     1  UNL1        0.2411
      2 O          63.4932   91.2248   13.4942 O.2     1  UNL1       -0.2733
      3 N          63.3596   90.7430   10.9448 N.am    1  UNL1       -0.2966
      4 H          63.7008   90.8819   10.0318 H       1  UNL1        0.1499
      5 C          65.1864   92.3416   11.8707 C.3     1  UNL1        0.1554
      6 C          67.2961   92.8560   13.2971 C.2     1  UNL1        0.4017
      7 O          68.1135   91.9651   12.4094 O.2     1  UNL1       -0.2264
      8 N          65.8325   93.0443   13.0278 N.am    1  UNL1       -0.2637
      9 H          65.2959   93.6290   13.6104 H       1  UNL1        0.1532
     10 O          67.9422   93.5587   14.4542 O.3     1  UNL1       -0.4419
     11 C          67.5566   91.6257   15.2381 C.3     1  UNL1        0.0437
     12 C          68.4491   92.7679   15.6236 C.3     1  UNL1        0.1378
     13 C          69.3416   93.9101   16.0091 C.3     1  UNL1        0.0437
     14 C          68.9560   91.9770   16.7931 C.3     1  UNL1        0.0437
     15 C          65.7136   92.5440   10.4811 C.3     1  UNL1        0.0562
     16 C          66.1900   93.8994   10.0497 C.ar    1  UNL1       -0.0094
     17 C          65.4098   95.1237   10.4269 C.ar    1  UNL1       -0.0034
     18 C          65.8862   96.4790    9.9955 C.ar    1  UNL1       -0.0003
     19 C          67.1428   96.6100    9.1869 C.ar    1  UNL1        0.0008
     20 C          67.9230   95.3857    8.8097 C.ar    1  UNL1        0.0111
     21 C          67.4466   94.0304    9.2411 C.ar    1  UNL1        0.0538
     22 CL         68.2268   92.8060    8.8639 Cl      1  UNL1       -0.0826
     23 C          62.1863   89.8378   11.1772 C.3     1  UNL1        0.1543
     24 C          62.4089   88.4022   11.5507 C.ar    1  UNL1        0.1417
     25 N          63.3684   87.8997   12.5885 N.ar    1  UNL1       -0.2276
     26 C          63.2636   86.4040   12.6311 C.ar    1  UNL1        0.1167
     27 C          63.9685   85.3717   13.4603 C.ar    1  UNL1        0.0238
     28 C          63.6492   83.9175   13.2780 C.ar    1  UNL1        0.0223
     29 C          62.6250   83.4956   12.2666 C.ar    1  UNL1        0.1006
     30 N          61.9201   84.5279   11.4374 N.ar    1  UNL1       -0.2252
     31 C          62.2394   85.9821   11.6197 C.ar    1  UNL1        0.1626
     32 N          61.7112   87.2170   10.9520 N.ar    1  UNL1       -0.2990
     33 C          60.6683   87.2593    9.8747 C.3     1  UNL1        0.0898
     34 C          59.3975   87.6032    9.1559 C.3     1  UNL1        0.0273
     35 C          59.6497   88.1424   10.5327 C.3     1  UNL1        0.0273
     36 C          61.3246   86.3911    8.8426 C.ar    1  UNL1       -0.0037
     37 C          60.5068   85.7906    7.7378 C.ar    1  UNL1       -0.0025
     38 C          61.1631   84.9223    6.7056 C.ar    1  UNL1       -0.0003
     39 C          62.6372   84.6545    6.7783 C.ar    1  UNL1       -0.0000
     40 C          63.4551   85.2551    7.8831 C.ar    1  UNL1       -0.0003
     41 C          62.7988   86.1234    8.9152 C.ar    1  UNL1       -0.0025
@<TRIPOS>BOND
     1    11    12    1
     2    12    13    1
     3    12    14    1
     4    12    10    1
     5    10     6    1
     6     6     7    2
     7     6     8   am
     8     8     5    1
     9     5    15    1
    10    15    16    1
    11    16    17   ar
    12    17    18   ar
    13    18    19   ar
    14    19    20   ar
    15    20    21   ar
    16    21    22    1
    17     5     1    1
    18     1     2    2
    19     1     3   am
    20     3    23    1
    21    23    24    1
    22    24    25   ar
    23    25    26   ar
    24    26    27   ar
    25    27    28   ar
    26    28    29   ar
    27    29    30   ar
    28    30    31   ar
    29    31    32   ar
    30    32    33    1
    31    33    36    1
    32    36    37   ar
    33    37    38   ar
    34    38    39   ar
    35    39    40   ar
    36    40    41   ar
    37    33    34    1
    38    34    35    1
    39    21    16   ar
    40    32    24   ar
    41    35    33    1
    42    31    26   ar
    43    41    36   ar
    44     8     9    1
    45     3     4    1
@<TRIPOS>MOLECULE
*****
 41 45 0 0 0
SMALL
GASTEIGER

@<TRIPOS>ATOM
      1 C          64.1134   91.6175   11.0799 C.2     1  UNL1        0.2411
      2 O          63.1759   91.9040    9.9446 O.2     1  UNL1       -0.2733
      3 N          63.8648   90.4435   11.9799 N.am    1  UNL1       -0.2966
      4 H          64.4801   90.2554   12.7250 H       1  UNL1        0.1499
      5 C          65.2996   92.5049   11.3153 C.3     1  UNL1        0.1554
      6 C          66.4556   94.6252   10.3571 C.2     1  UNL1        0.4017
      7 O          67.7268   93.8500   10.1754 O.2     1  UNL1       -0.2264
      8 N          65.2420   93.9526   10.9271 N.am    1  UNL1       -0.2637
      9 H          64.4076   94.4614   11.0464 H       1  UNL1        0.1532
     10 O          66.3979   96.0730    9.9689 O.3     1  UNL1       -0.4419
     11 C          64.6332   96.8521    9.0866 C.3     1  UNL1        0.0437
     12 C          65.9893   96.4609    8.5788 C.3     1  UNL1        0.1378
     13 C          67.3453   96.0698    8.0709 C.3     1  UNL1        0.0437
     14 C          65.5805   96.8489    7.1886 C.3     1  UNL1        0.0437
     15 C          66.5435   91.9446   11.9389 C.3     1  UNL1        0.0562
     16 C          66.7948   92.1279   13.4064 C.ar    1  UNL1       -0.0094
     17 C          65.6538   92.4364   14.3299 C.ar    1  UNL1       -0.0034
     18 C          65.9051   92.6196   15.7973 C.ar    1  UNL1       -0.0003
     19 C          67.2975   92.4945   16.3411 C.ar    1  UNL1        0.0008
     20 C          68.4384   92.1860   15.4176 C.ar    1  UNL1        0.0111
     21 C          68.1871   92.0027   13.9502 C.ar    1  UNL1        0.0538
     22 CL         69.3281   91.6943   13.0266 Cl      1  UNL1       -0.0826
     23 C          62.6786   89.5560   11.7446 C.3     1  UNL1        0.1543
     24 C          62.7777   88.0841   12.0157 C.ar    1  UNL1        0.1417
     25 N          63.7177   87.4269   12.9823 N.ar    1  UNL1       -0.2276
     26 C          63.4751   85.9475   12.9319 C.ar    1  UNL1        0.1167
     27 C          64.1059   84.8014   13.6656 C.ar    1  UNL1        0.0238
     28 C          63.6467   83.3981   13.4015 C.ar    1  UNL1        0.0223
     29 C          62.5566   83.1409   12.4037 C.ar    1  UNL1        0.1006
     30 N          61.9258   84.2870   11.6700 N.ar    1  UNL1       -0.2252
     31 C          62.3850   85.6903   11.9341 C.ar    1  UNL1        0.1626
     32 N          61.9540   87.0108   11.3679 N.ar    1  UNL1       -0.2990
     33 C          60.8867   87.2211   10.3351 C.3     1  UNL1        0.0898
     34 C          59.6217   87.7111    9.6949 C.3     1  UNL1        0.0273
     35 C          59.9469   88.0995   11.1068 C.3     1  UNL1        0.0273
     36 C          61.4556   86.4157    9.2048 C.ar    1  UNL1       -0.0037
     37 C          60.5804   86.0152    8.0544 C.ar    1  UNL1       -0.0025
     38 C          61.1493   85.2098    6.9240 C.ar    1  UNL1       -0.0003
     39 C          62.5935   84.8050    6.9441 C.ar    1  UNL1       -0.0000
     40 C          63.4688   85.2056    8.0946 C.ar    1  UNL1       -0.0003
     41 C          62.8999   86.0110    9.2249 C.ar    1  UNL1       -0.0025
@<TRIPOS>BOND
     1    11    12    1
     2    12    13    1
     3    12    14    1
     4    12    10    1
     5    10     6    1
     6     6     7    2
     7     6     8   am
     8     8     5    1
     9     5    15    1
    10    15    16    1
    11    16    17   ar
    12    17    18   ar
    13    18    19   ar
    14    19    20   ar
    15    20    21   ar
    16    21    22    1
    17     5     1    1
    18     1     2    2
    19     1     3   am
    20     3    23    1
    21    23    24    1
    22    24    25   ar
    23    25    26   ar
    24    26    27   ar
    25    27    28   ar
    26    28    29   ar
    27    29    30   ar
    28    30    31   ar
    29    31    32   ar
    30    32    33    1
    31    33    36    1
    32    36    37   ar
    33    37    38   ar
    34    38    39   ar
    35    39    40   ar
    36    40    41   ar
    37    33    34    1
    38    34    35    1
    39    21    16   ar
    40    32    24   ar
    41    35    33    1
    42    31    26   ar
    43    41    36   ar
    44     8     9    1
    45     3     4    1
@<TRIPOS>MOLECULE
*****
 41 45 0 0 0
SMALL
GASTEIGER

@<TRIPOS>ATOM
      1 C          62.6223   87.9747   12.4214 C.2     1  UNL1        0.2411
      2 O          61.5419   89.0100   12.3177 O.2     1  UNL1       -0.2733
      3 N          63.8349   88.2379   13.2643 N.am    1  UNL1       -0.2966
      4 H          64.5440   87.5584   13.3324 H       1  UNL1        0.1499
      5 C          62.4902   86.6761   11.6823 C.3     1  UNL1        0.1554
      6 C          63.1059   84.8461   13.4208 C.2     1  UNL1        0.4017
      7 O          64.4199   85.5252   13.6703 O.2     1  UNL1       -0.2264
      8 N          62.1410   85.4216   12.4268 N.am    1  UNL1       -0.2637
      9 H          61.2786   84.9759   12.2631 H       1  UNL1        0.1532
     10 O          62.7567   83.5916   14.1653 O.3     1  UNL1       -0.4419
     11 C          61.5848   81.8238   14.1982 C.3     1  UNL1        0.0437
     12 C          62.8194   82.2644   13.4692 C.3     1  UNL1        0.1378
     13 C          64.0540   82.7050   12.7402 C.3     1  UNL1        0.0437
     14 C          62.8821   80.9371   12.7732 C.3     1  UNL1        0.0437
     15 C          62.7072   86.6320   10.1988 C.3     1  UNL1        0.0562
     16 C          61.5305   86.5818    9.2698 C.ar    1  UNL1       -0.0094
     17 C          60.3044   87.3926    9.5681 C.ar    1  UNL1       -0.0034
     18 C          59.1278   87.3424    8.6391 C.ar    1  UNL1       -0.0003
     19 C          59.1773   86.4813    7.4119 C.ar    1  UNL1        0.0008
     20 C          60.4035   85.6705    7.1136 C.ar    1  UNL1        0.0111
     21 C          61.5801   85.7207    8.0426 C.ar    1  UNL1        0.0538
     22 CL         62.8063   84.9098    7.7443 Cl      1  UNL1       -0.0826
     23 C          63.9670   89.5365   14.0033 C.3     1  UNL1        0.1543
     24 C          64.4569   90.7603   13.2876 C.ar    1  UNL1        0.1417
     25 N          64.3393   91.0276   11.8163 N.ar    1  UNL1       -0.2276
     26 C          64.9602   92.3643   11.5369 C.ar    1  UNL1        0.1167
     27 C          65.1337   93.1447   10.2678 C.ar    1  UNL1        0.0238
     28 C          65.8086   94.4839   10.2973 C.ar    1  UNL1        0.0223
     29 C          66.3100   95.0427   11.5960 C.ar    1  UNL1        0.1006
     30 N          66.1364   94.2622   12.8651 N.ar    1  UNL1       -0.2252
     31 C          65.4615   92.9230   12.8356 C.ar    1  UNL1        0.1626
     32 N          65.1505   91.9317   13.9175 N.ar    1  UNL1       -0.2990
     33 C          65.4759   92.0850   15.3738 C.3     1  UNL1        0.0898
     34 C          65.2920   92.1334   16.8617 C.3     1  UNL1        0.0273
     35 C          64.1223   91.8365   15.9708 C.3     1  UNL1        0.0273
     36 C          66.9424   92.3867   15.2826 C.ar    1  UNL1       -0.0037
     37 C          67.5405   93.4656   16.1360 C.ar    1  UNL1       -0.0025
     38 C          69.0070   93.7674   16.0449 C.ar    1  UNL1       -0.0003
     39 C          69.8753   92.9902   15.1004 C.ar    1  UNL1       -0.0000
     40 C          69.2772   91.9113   14.2470 C.ar    1  UNL1       -0.0003
     41 C          67.8107   91.6096   14.3381 C.ar    1  UNL1       -0.0025
@<TRIPOS>BOND
     1    11    12    1
     2    12    13    1
     3    12    14    1
     4    12    10    1
     5    10     6    1
     6     6     7    2
     7     6     8   am
     8     8     5    1
     9     5    15    1
    10    15    16    1
    11    16    17   ar
    12    17    18   ar
    13    18    19   ar
    14    19    20   ar
    15    20    21   ar
    16    21    22    1
    17     5     1    1
    18     1     2    2
    19     1     3   am
    20     3    23    1
    21    23    24    1
    22    24    25   ar
    23    25    26   ar
    24    26    27   ar
    25    27    28   ar
    26    28    29   ar
    27    29    30   ar
    28    30    31   ar
    29    31    32   ar
    30    32    33    1
    31    33    36    1
    32    36    37   ar
    33    37    38   ar
    34    38    39   ar
    35    39    40   ar
    36    40    41   ar
    37    33    34    1
    38    34    35    1
    39    21    16   ar
    40    32    24   ar
    41    35    33    1
    42    31    26   ar
    43    41    36   ar
    44     8     9    1
    45     3     4    1
@<TRIPOS>MOLECULE
*****
 41 45 0 0 0
SMALL
GASTEIGER

@<TRIPOS>ATOM
      1 C          61.9903   88.5857   12.0720 C.2     1  UNL1        0.2411
      2 O          61.0751   89.7115   12.4528 O.2     1  UNL1       -0.2733
      3 N          63.3986   88.5568   12.5876 N.am    1  UNL1       -0.2966
      4 H          63.9993   87.8180   12.3376 H       1  UNL1        0.1499
      5 C          61.4972   87.4888   11.1755 C.3     1  UNL1        0.1554
      6 C          62.3185   85.3283   12.3621 C.2     1  UNL1        0.4017
      7 O          63.7093   85.8875   12.4176 O.2     1  UNL1       -0.2264
      8 N          61.2125   86.1290   11.7410 N.am    1  UNL1       -0.2637
      9 H          60.2996   85.7620   11.7046 H       1  UNL1        0.1532
     10 O          62.0337   83.9685   12.9276 O.3     1  UNL1       -0.4419
     11 C          62.9149   82.8119   11.3831 C.3     1  UNL1        0.0437
     12 C          63.0829   82.8980   12.8711 C.3     1  UNL1        0.1378
     13 C          63.2508   82.9841   14.3592 C.3     1  UNL1        0.0437
     14 C          64.1321   81.8275   12.8146 C.3     1  UNL1        0.0437
     15 C          61.2890   87.7517    9.7134 C.3     1  UNL1        0.0562
     16 C          61.5019   86.6518    8.7159 C.ar    1  UNL1       -0.0094
     17 C          62.8379   85.9772    8.6170 C.ar    1  UNL1       -0.0034
     18 C          63.0508   84.8774    7.6194 C.ar    1  UNL1       -0.0003
     19 C          61.9276   84.4523    6.7208 C.ar    1  UNL1        0.0008
     20 C          60.5915   85.1269    6.8196 C.ar    1  UNL1        0.0111
     21 C          60.3787   86.2266    7.8172 C.ar    1  UNL1        0.0538
     22 CL         59.0426   86.9013    7.9161 Cl      1  UNL1       -0.0826
     23 C          63.8917   89.6537   13.4840 C.3     1  UNL1        0.1543
     24 C          64.4320   90.9212   12.8910 C.ar    1  UNL1        0.1417
     25 N          64.3731   91.3128   11.4442 N.ar    1  UNL1       -0.2276
     26 C          65.0307   92.6532   11.2997 C.ar    1  UNL1        0.1167
     27 C          65.2659   93.5324   10.1074 C.ar    1  UNL1        0.0238
     28 C          65.9665   94.8484   10.2725 C.ar    1  UNL1        0.0223
     29 C          66.4319   95.2851   11.6300 C.ar    1  UNL1        0.1006
     30 N          66.1968   94.4059   12.8223 N.ar    1  UNL1       -0.2252
     31 C          65.4962   93.0899   12.6571 C.ar    1  UNL1        0.1626
     32 N          65.1261   92.0195   13.6406 N.ar    1  UNL1       -0.2990
     33 C          65.4018   92.0432   15.1148 C.3     1  UNL1        0.0898
     34 C          65.1668   91.9642   16.5942 C.3     1  UNL1        0.0273
     35 C          64.0271   91.7554   15.6416 C.3     1  UNL1        0.0273
     36 C          66.8722   92.3393   15.1002 C.ar    1  UNL1       -0.0037
     37 C          67.7733   91.6158   14.1439 C.ar    1  UNL1       -0.0025
     38 C          69.2438   91.9118   14.1292 C.ar    1  UNL1       -0.0003
     39 C          69.8130   92.9313   15.0708 C.ar    1  UNL1       -0.0000
     40 C          68.9118   93.6548   16.0271 C.ar    1  UNL1       -0.0003
     41 C          67.4414   93.3588   16.0417 C.ar    1  UNL1       -0.0025
@<TRIPOS>BOND
     1    11    12    1
     2    12    13    1
     3    12    14    1
     4    12    10    1
     5    10     6    1
     6     6     7    2
     7     6     8   am
     8     8     5    1
     9     5    15    1
    10    15    16    1
    11    16    17   ar
    12    17    18   ar
    13    18    19   ar
    14    19    20   ar
    15    20    21   ar
    16    21    22    1
    17     5     1    1
    18     1     2    2
    19     1     3   am
    20     3    23    1
    21    23    24    1
    22    24    25   ar
    23    25    26   ar
    24    26    27   ar
    25    27    28   ar
    26    28    29   ar
    27    29    30   ar
    28    30    31   ar
    29    31    32   ar
    30    32    33    1
    31    33    36    1
    32    36    37   ar
    33    37    38   ar
    34    38    39   ar
    35    39    40   ar
    36    40    41   ar
    37    33    34    1
    38    34    35    1
    39    21    16   ar
    40    32    24   ar
    41    35    33    1
    42    31    26   ar
    43    41    36   ar
    44     8     9    1
    45     3     4    1
@<TRIPOS>MOLECULE
*****
 41 45 0 0 0
SMALL
GASTEIGER

@<TRIPOS>ATOM
      1 C          62.7282   90.0554   11.1664 C.2     1  UNL1        0.2411
      2 O          62.0799   90.7363   12.3352 O.2     1  UNL1       -0.2733
      3 N          63.7772   90.7716   10.3685 N.am    1  UNL1       -0.2966
      4 H          64.2026   90.3248    9.6013 H       1  UNL1        0.1499
      5 C          62.3275   88.6583   10.7955 C.3     1  UNL1        0.1554
      6 C          61.8505   86.4978   12.1575 C.2     1  UNL1        0.4017
      7 O          60.3813   86.6617   11.9028 O.2     1  UNL1       -0.2264
      8 N          62.8236   87.4962   11.6038 N.am    1  UNL1       -0.2637
      9 H          63.7878   87.3887   11.7710 H       1  UNL1        0.1532
     10 O          62.3465   85.3358   12.9658 O.3     1  UNL1       -0.4419
     11 C          64.2773   84.6333   13.4933 C.3     1  UNL1        0.0437
     12 C          63.3233   84.3679   12.3667 C.3     1  UNL1        0.1378
     13 C          62.3693   84.1026   11.2400 C.3     1  UNL1        0.0437
     14 C          64.3002   83.4001   11.7675 C.3     1  UNL1        0.0437
     15 C          61.4308   88.4233    9.6162 C.3     1  UNL1        0.0562
     16 C          61.5849   87.1788    8.7931 C.ar    1  UNL1       -0.0094
     17 C          62.9060   86.4701    8.7451 C.ar    1  UNL1       -0.0034
     18 C          63.0600   85.2256    7.9220 C.ar    1  UNL1       -0.0003
     19 C          61.8929   84.6899    7.1468 C.ar    1  UNL1        0.0008
     20 C          60.5718   85.3986    7.1948 C.ar    1  UNL1        0.0111
     21 C          60.4178   86.6431    8.0179 C.ar    1  UNL1        0.0538
     22 CL         59.0966   87.3519    8.0659 Cl      1  UNL1       -0.0826
     23 C          64.1779   92.1687   10.7393 C.3     1  UNL1        0.1543
     24 C          64.9950   92.4120   11.9735 C.ar    1  UNL1        0.1417
     25 N          64.9629   91.5907   13.2282 N.ar    1  UNL1       -0.2276
     26 C          65.9357   92.1904   14.1998 C.ar    1  UNL1        0.1167
     27 C          66.3267   91.8051   15.5957 C.ar    1  UNL1        0.0238
     28 C          67.3510   92.6118   16.3373 C.ar    1  UNL1        0.0223
     29 C          67.9843   93.8038   15.6830 C.ar    1  UNL1        0.1006
     30 N          67.5934   94.1891   14.2871 N.ar    1  UNL1       -0.2252
     31 C          66.5691   93.3824   13.5455 C.ar    1  UNL1        0.1626
     32 N          65.9876   93.5193   12.1696 N.ar    1  UNL1       -0.2990
     33 C          66.3375   94.5778   11.1659 C.3     1  UNL1        0.0898
     34 C          66.3932   95.9154   10.4894 C.3     1  UNL1        0.0273
     35 C          65.6120   95.7492   11.7590 C.3     1  UNL1        0.0273
     36 C          67.1845   93.7741   10.2243 C.ar    1  UNL1       -0.0037
     37 C          67.5701   94.3430    8.8910 C.ar    1  UNL1       -0.0025
     38 C          68.4171   93.5393    7.9493 C.ar    1  UNL1       -0.0003
     39 C          68.8784   92.1668    8.3410 C.ar    1  UNL1       -0.0000
     40 C          68.4928   91.5980    9.6743 C.ar    1  UNL1       -0.0003
     41 C          67.6458   92.4016   10.6160 C.ar    1  UNL1       -0.0025
@<TRIPOS>BOND
     1    11    12    1
     2    12    13    1
     3    12    14    1
     4    12    10    1
     5    10     6    1
     6     6     7    2
     7     6     8   am
     8     8     5    1
     9     5    15    1
    10    15    16    1
    11    16    17   ar
    12    17    18   ar
    13    18    19   ar
    14    19    20   ar
    15    20    21   ar
    16    21    22    1
    17     5     1    1
    18     1     2    2
    19     1     3   am
    20     3    23    1
    21    23    24    1
    22    24    25   ar
    23    25    26   ar
    24    26    27   ar
    25    27    28   ar
    26    28    29   ar
    27    29    30   ar
    28    30    31   ar
    29    31    32   ar
    30    32    33    1
    31    33    36    1
    32    36    37   ar
    33    37    38   ar
    34    38    39   ar
    35    39    40   ar
    36    40    41   ar
    37    33    34    1
    38    34    35    1
    39    21    16   ar
    40    32    24   ar
    41    35    33    1
    42    31    26   ar
    43    41    36   ar
    44     8     9    1
    45     3     4    1
@<TRIPOS>MOLECULE
*****
 41 45 0 0 0
SMALL
GASTEIGER

@<TRIPOS>ATOM
      1 C          64.3501   91.6436   11.4749 C.2     1  UNL1        0.2411
      2 O          63.5758   91.8204   10.2025 O.2     1  UNL1       -0.2733
      3 N          64.1006   90.4471   12.3446 N.am    1  UNL1       -0.2966
      4 H          64.6088   90.3311   13.1797 H       1  UNL1        0.1499
      5 C          65.3739   92.6632   11.8778 C.3     1  UNL1        0.1554
      6 C          66.3249   91.8565   14.1570 C.2     1  UNL1        0.4017
      7 O          64.9409   91.8595   14.7355 O.2     1  UNL1       -0.2264
      8 N          66.5414   92.2583   12.7281 N.am    1  UNL1       -0.2637
      9 H          67.4497   92.2564   12.3484 H       1  UNL1        0.1532
     10 O          67.4923   91.4516   15.0074 O.3     1  UNL1       -0.4419
     11 C          69.4475   92.0041   14.3975 C.3     1  UNL1        0.0437
     12 C          68.4904   92.4802   15.4497 C.3     1  UNL1        0.1378
     13 C          67.5333   92.9564   16.5019 C.3     1  UNL1        0.0437
     14 C          69.4886   93.5089   15.8921 C.3     1  UNL1        0.0437
     15 C          65.2302   94.0877   11.4303 C.3     1  UNL1        0.0562
     16 C          66.0566   94.6023   10.2891 C.ar    1  UNL1       -0.0094
     17 C          67.1171   93.7341    9.6797 C.ar    1  UNL1       -0.0034
     18 C          67.9434   94.2487    8.5385 C.ar    1  UNL1       -0.0003
     19 C          67.7091   95.6316    8.0067 C.ar    1  UNL1        0.0008
     20 C          66.6486   96.4998    8.6161 C.ar    1  UNL1        0.0111
     21 C          65.8223   95.9852    9.7573 C.ar    1  UNL1        0.0538
     22 CL         64.7617   96.8534   10.3667 Cl      1  UNL1       -0.0826
     23 C          63.0768   89.4275   11.9418 C.3     1  UNL1        0.1543
     24 C          63.2042   88.0096   12.4143 C.ar    1  UNL1        0.1417
     25 N          63.9335   87.5516   13.6424 N.ar    1  UNL1       -0.2276
     26 C          63.8046   86.0597   13.7288 C.ar    1  UNL1        0.1167
     27 C          64.3194   85.0638   14.7254 C.ar    1  UNL1        0.0238
     28 C          64.0252   83.6038   14.5471 C.ar    1  UNL1        0.0223
     29 C          63.2162   83.1397   13.3723 C.ar    1  UNL1        0.1006
     30 N          62.7015   84.1356   12.3758 N.ar    1  UNL1       -0.2252
     31 C          62.9957   85.5955   12.5540 C.ar    1  UNL1        0.1626
     32 N          62.6246   86.8007   11.7416 N.ar    1  UNL1       -0.2990
     33 C          61.8158   86.7974   10.4783 C.3     1  UNL1        0.0898
     34 C          61.3095   86.3785    9.1299 C.3     1  UNL1        0.0273
     35 C          62.4057   85.5996    9.7944 C.3     1  UNL1        0.0273
     36 C          60.9451   87.9939   10.7233 C.ar    1  UNL1       -0.0037
     37 C          60.0363   88.0284   11.9161 C.ar    1  UNL1       -0.0025
     38 C          59.1655   89.2250   12.1612 C.ar    1  UNL1       -0.0003
     39 C          59.2035   90.3870   11.2133 C.ar    1  UNL1       -0.0000
     40 C          60.1123   90.3524   10.0204 C.ar    1  UNL1       -0.0003
     41 C          60.9831   89.1559    9.7754 C.ar    1  UNL1       -0.0025
@<TRIPOS>BOND
     1    11    12    1
     2    12    13    1
     3    12    14    1
     4    12    10    1
     5    10     6    1
     6     6     7    2
     7     6     8   am
     8     8     5    1
     9     5    15    1
    10    15    16    1
    11    16    17   ar
    12    17    18   ar
    13    18    19   ar
    14    19    20   ar
    15    20    21   ar
    16    21    22    1
    17     5     1    1
    18     1     2    2
    19     1     3   am
    20     3    23    1
    21    23    24    1
    22    24    25   ar
    23    25    26   ar
    24    26    27   ar
    25    27    28   ar
    26    28    29   ar
    27    29    30   ar
    28    30    31   ar
    29    31    32   ar
    30    32    33    1
    31    33    36    1
    32    36    37   ar
    33    37    38   ar
    34    38    39   ar
    35    39    40   ar
    36    40    41   ar
    37    33    34    1
    38    34    35    1
    39    21    16   ar
    40    32    24   ar
    41    35    33    1
    42    31    26   ar
    43    41    36   ar
    44     8     9    1
    45     3     4    1
@<TRIPOS>MOLECULE
*****
 41 45 0 0 0
SMALL
GASTEIGER

@<TRIPOS>ATOM
      1 C          60.5645   89.4368   10.8753 C.2     1  UNL1        0.2411
      2 O          59.4118   89.9453   11.6894 O.2     1  UNL1       -0.2733
      3 N          61.9642   89.5548   11.4015 N.am    1  UNL1       -0.2966
      4 H          62.7207   89.2210   10.8672 H       1  UNL1        0.1499
      5 C          60.3174   88.8103    9.5350 C.3     1  UNL1        0.1554
      6 C          59.6652   89.1993    7.0503 C.2     1  UNL1        0.4017
      7 O          58.8981   87.9102    7.0499 O.2     1  UNL1       -0.2264
      8 N          60.3749   89.6493    8.2929 N.am    1  UNL1       -0.2637
      9 H          60.8783   90.4953    8.2932 H       1  UNL1        0.1532
     10 O          59.7226   90.0382    5.8083 O.3     1  UNL1       -0.4419
     11 C          57.6296   89.9451    6.1404 C.3     1  UNL1        0.0437
     12 C          58.5486   90.8885    5.4226 C.3     1  UNL1        0.1378
     13 C          59.4677   91.8319    4.7048 C.3     1  UNL1        0.0437
     14 C          57.3746   91.7388    5.0370 C.3     1  UNL1        0.0437
     15 C          60.0130   87.3448    9.4367 C.3     1  UNL1        0.0562
     16 C          61.1287   86.3568    9.2666 C.ar    1  UNL1       -0.0094
     17 C          61.5805   85.9651    7.8909 C.ar    1  UNL1       -0.0034
     18 C          62.6962   84.9771    7.7208 C.ar    1  UNL1       -0.0003
     19 C          63.3602   84.3807    8.9264 C.ar    1  UNL1        0.0008
     20 C          62.9084   84.7723   10.3021 C.ar    1  UNL1        0.0111
     21 C          61.7927   85.7604   10.4722 C.ar    1  UNL1        0.0538
     22 CL         61.3409   86.1520   11.8479 Cl      1  UNL1       -0.0826
     23 C          62.2112   90.1812   12.7418 C.3     1  UNL1        0.1543
     24 C          63.5882   90.6501   13.1083 C.ar    1  UNL1        0.1417
     25 N          64.5490   91.3588   12.2002 N.ar    1  UNL1       -0.2276
     26 C          65.8007   91.6393   12.9778 C.ar    1  UNL1        0.1167
     27 C          67.0867   92.3130   12.6008 C.ar    1  UNL1        0.0238
     28 C          68.1855   92.4513   13.6124 C.ar    1  UNL1        0.0223
     29 C          67.9983   91.9159   15.0011 C.ar    1  UNL1        0.1006
     30 N          66.7123   91.2422   15.3781 N.ar    1  UNL1       -0.2252
     31 C          65.6135   91.1038   14.3664 C.ar    1  UNL1        0.1626
     32 N          64.2461   90.4925   14.4470 N.ar    1  UNL1       -0.2990
     33 C          63.6425   89.8384   15.6545 C.3     1  UNL1        0.0898
     34 C          62.9846   89.6854   16.9938 C.3     1  UNL1        0.0273
     35 C          63.2762   91.0540   16.4535 C.3     1  UNL1        0.0273
     36 C          63.7992   88.3958   15.2749 C.ar    1  UNL1       -0.0037
     37 C          63.6395   87.3254   16.3136 C.ar    1  UNL1       -0.0025
     38 C          63.7962   85.8827   15.9340 C.ar    1  UNL1       -0.0003
     39 C          64.1126   85.5104   14.5158 C.ar    1  UNL1       -0.0000
     40 C          64.2723   86.5808   13.4771 C.ar    1  UNL1       -0.0003
     41 C          64.1156   88.0235   13.8567 C.ar    1  UNL1       -0.0025
@<TRIPOS>BOND
     1    11    12    1
     2    12    13    1
     3    12    14    1
     4    12    10    1
     5    10     6    1
     6     6     7    2
     7     6     8   am
     8     8     5    1
     9     5    15    1
    10    15    16    1
    11    16    17   ar
    12    17    18   ar
    13    18    19   ar
    14    19    20   ar
    15    20    21   ar
    16    21    22    1
    17     5     1    1
    18     1     2    2
    19     1     3   am
    20     3    23    1
    21    23    24    1
    22    24    25   ar
    23    25    26   ar
    24    26    27   ar
    25    27    28   ar
    26    28    29   ar
    27    29    30   ar
    28    30    31   ar
    29    31    32   ar
    30    32    33    1
    31    33    36    1
    32    36    37   ar
    33    37    38   ar
    34    38    39   ar
    35    39    40   ar
    36    40    41   ar
    37    33    34    1
    38    34    35    1
    39    21    16   ar
    40    32    24   ar
    41    35    33    1
    42    31    26   ar
    43    41    36   ar
    44     8     9    1
    45     3     4    1
@<TRIPOS>MOLECULE
*****
 41 45 0 0 0
SMALL
GASTEIGER

@<TRIPOS>ATOM
      1 C          62.7769   87.7068   12.7518 C.2     1  UNL1        0.2411
      2 O          61.6817   88.6713   12.4051 O.2     1  UNL1       -0.2733
      3 N          63.8687   88.1189   13.6942 N.am    1  UNL1       -0.2966
      4 H          64.5875   87.4858   13.9218 H       1  UNL1        0.1499
      5 C          62.7803   86.3301   12.1562 C.3     1  UNL1        0.1554
      6 C          61.8765   86.8446    9.7753 C.2     1  UNL1        0.4017
      7 O          62.8123   88.0124    9.6724 O.2     1  UNL1       -0.2264
      8 N          61.8605   86.0034   11.0172 N.am    1  UNL1       -0.2637
      9 H          61.2463   85.2370   11.0847 H       1  UNL1        0.1532
     10 O          60.9568   86.5179    8.6363 O.3     1  UNL1       -0.4419
     11 C          60.0223   85.6022    6.9666 C.3     1  UNL1        0.0437
     12 C          61.3947   85.5577    7.5705 C.3     1  UNL1        0.1378
     13 C          62.7670   85.5132    8.1743 C.3     1  UNL1        0.0437
     14 C          61.8325   84.5974    6.5045 C.3     1  UNL1        0.0437
     15 C          63.7035   85.2801   12.6996 C.3     1  UNL1        0.0562
     16 C          63.2207   83.8695   12.8643 C.ar    1  UNL1       -0.0094
     17 C          62.4806   83.4703   14.1065 C.ar    1  UNL1       -0.0034
     18 C          61.9979   82.0597   14.2712 C.ar    1  UNL1       -0.0003
     19 C          62.2552   81.0483   13.1938 C.ar    1  UNL1        0.0008
     20 C          62.9952   81.4475   11.9516 C.ar    1  UNL1        0.0111
     21 C          63.4780   82.8580   11.7869 C.ar    1  UNL1        0.0538
     22 CL         64.2180   83.2573   10.5447 Cl      1  UNL1       -0.0826
     23 C          63.8654   89.4955   14.2899 C.3     1  UNL1        0.1543
     24 C          64.3682   90.6603   13.4896 C.ar    1  UNL1        0.1417
     25 N          64.2306   90.8359   12.0063 N.ar    1  UNL1       -0.2276
     26 C          64.8743   92.1381   11.6319 C.ar    1  UNL1        0.1167
     27 C          65.0420   92.8322   10.3129 C.ar    1  UNL1        0.0238
     28 C          65.7452   94.1554   10.2458 C.ar    1  UNL1        0.0223
     29 C          66.2806   94.7846   11.4978 C.ar    1  UNL1        0.1006
     30 N          66.1129   94.0905   12.8168 N.ar    1  UNL1       -0.2252
     31 C          65.4097   92.7672   12.8839 C.ar    1  UNL1        0.1626
     32 N          65.0969   91.8539   14.0320 N.ar    1  UNL1       -0.2990
     33 C          65.4508   92.0923   15.4700 C.3     1  UNL1        0.0898
     34 C          65.2955   92.2313   16.9555 C.3     1  UNL1        0.0273
     35 C          64.1076   91.8886   16.1061 C.3     1  UNL1        0.0273
     36 C          66.9168   92.3788   15.3335 C.ar    1  UNL1       -0.0037
     37 C          67.5486   93.4634   16.1547 C.ar    1  UNL1       -0.0025
     38 C          69.0147   93.7499   16.0182 C.ar    1  UNL1       -0.0003
     39 C          69.8488   92.9518   15.0604 C.ar    1  UNL1       -0.0000
     40 C          69.2169   91.8672   14.2392 C.ar    1  UNL1       -0.0003
     41 C          67.7509   91.5807   14.3757 C.ar    1  UNL1       -0.0025
@<TRIPOS>BOND
     1    11    12    1
     2    12    13    1
     3    12    14    1
     4    12    10    1
     5    10     6    1
     6     6     7    2
     7     6     8   am
     8     8     5    1
     9     5    15    1
    10    15    16    1
    11    16    17   ar
    12    17    18   ar
    13    18    19   ar
    14    19    20   ar
    15    20    21   ar
    16    21    22    1
    17     5     1    1
    18     1     2    2
    19     1     3   am
    20     3    23    1
    21    23    24    1
    22    24    25   ar
    23    25    26   ar
    24    26    27   ar
    25    27    28   ar
    26    28    29   ar
    27    29    30   ar
    28    30    31   ar
    29    31    32   ar
    30    32    33    1
    31    33    36    1
    32    36    37   ar
    33    37    38   ar
    34    38    39   ar
    35    39    40   ar
    36    40    41   ar
    37    33    34    1
    38    34    35    1
    39    21    16   ar
    40    32    24   ar
    41    35    33    1
    42    31    26   ar
    43    41    36   ar
    44     8     9    1
    45     3     4    1
