@<TRIPOS>MOLECULE
*****
 34 36 0 0 0
SMALL
GASTEIGER

@<TRIPOS>ATOM
      1 N          61.2741   86.4750   11.2045 N.am    1  UNL1       -0.2560
      2 C          60.8629   85.9944    9.8443 C.3     1  UNL1        0.1394
      3 C          60.7138   87.1929    8.9547 C.ar    1  UNL1        0.0662
      4 C          60.3675   87.6365    7.5643 C.ar    1  UNL1        0.0247
      5 C          60.4725   89.1321    7.5153 C.ar    1  UNL1        0.0614
      6 C          60.8838   89.6127    8.8754 C.ar    1  UNL1        0.0922
      7 N          61.0329   88.4142    9.7650 N.ar    1  UNL1       -0.2624
      8 C          61.3792   87.9706   11.1555 C.2     1  UNL1        0.3234
      9 O          61.7631   88.8653   12.2965 O.2     1  UNL1       -0.2490
     10 C          60.2121   89.9954    6.3167 C.1     1  UNL1       -0.0497
     11 C          59.9517   90.8588    5.1180 C.1     1  UNL1       -0.0095
     12 C          59.6911   91.7221    3.9193 C.1     1  UNL1       -0.0138
     13 C          59.4306   92.5854    2.7206 C.1     1  UNL1       -0.0760
     14 C          59.1700   93.4487    1.5220 C.3     1  UNL1        0.1001
     15 C          58.5891   93.6262    0.1505 C.3     1  UNL1        0.0519
     16 C          59.2996   94.7666    0.8173 C.3     1  UNL1        0.1726
     17 F          60.0564   95.5428    1.8540 F       1  UNL1       -0.2364
     18 C          59.1664   95.8148   -0.2473 C.3     1  UNL1        0.1706
     19 O          57.8459   96.4889   -0.4752 O.3     1  UNL1       -0.3793
     20 H          57.2044   95.8403   -0.8050 H       1  UNL1        0.2106
     21 C          61.5345   85.6117   12.4031 C.3     1  UNL1        0.0977
     22 C          62.8921   85.0089   12.6126 C.3     1  UNL1        0.0524
     23 C          63.2716   82.8383   14.6483 C.3     1  UNL1        0.0331
     24 C          63.0818   83.9236   13.6304 C.3     1  UNL1        0.1820
     25 C          62.9868   84.9388   14.7306 C.2     1  UNL1        0.2640
     26 O          63.8989   86.1296   14.7332 O.2     1  UNL1       -0.2713
     27 N          61.9797   84.7631   15.8283 N.am    1  UNL1       -0.1956
     28 O          61.8847   85.7783   16.9285 O.3     1  UNL1       -0.2951
     29 H          61.3811   83.9815   15.8266 H       1  UNL1        0.1823
     30 H          62.5398   86.4781   16.7802 H       1  UNL1        0.2414
     31 S          63.1769   82.9084   12.5303 S.O2    1  UNL1       -0.0034
     32 C          63.2718   81.8931   11.4303 C.3     1  UNL1        0.1765
     33 O          62.0611   82.1255   13.1565 O.2     1  UNL1       -0.1726
     34 O          64.2925   83.6913   11.9041 O.2     1  UNL1       -0.1726
@<TRIPOS>BOND
     1    24    23    1
     2    24    22    1
     3    22    21    1
     4    21     1    1
     5     1     2    1
     6     2     3    1
     7     3     4   ar
     8     4     5   ar
     9     5    10    1
    10    10    11    3
    11    11    12    1
    12    12    13    3
    13    14    13    1
    14    14    15    1
    15    15    16    1
    16    16    17    1
    17    16    18    1
    18    18    19    1
    19     5     6   ar
    20     6     7   ar
    21     7     8   am
    22     8     9    2
    23    24    25    1
    24    25    26    2
    25    25    27   am
    26    27    28    1
    27    24    31    1
    28    31    32    1
    29    31    33    2
    30    31    34    2
    31     8     1   am
    32     7     3   ar
    33    16    14    1
    34    19    20    1
    35    27    29    1
    36    28    30    1
@<TRIPOS>MOLECULE
*****
 34 36 0 0 0
SMALL
GASTEIGER

@<TRIPOS>ATOM
      1 N          61.5058   86.4183   11.3736 N.am    1  UNL1       -0.2560
      2 C          60.9107   85.9570   10.0763 C.3     1  UNL1        0.1394
      3 C          60.8133   87.1430    9.1631 C.ar    1  UNL1        0.0662
      4 C          60.3853   87.5908    7.7970 C.ar    1  UNL1        0.0247
      5 C          60.6557   89.0620    7.6857 C.ar    1  UNL1        0.0614
      6 C          61.2508   89.5235    8.9829 C.ar    1  UNL1        0.0922
      7 N          61.3482   88.3374    9.8961 N.ar    1  UNL1       -0.2624
      8 C          61.7762   87.8896   11.2622 C.2     1  UNL1        0.3234
      9 O          62.3703   88.7602   12.3295 O.2     1  UNL1       -0.2490
     10 C          60.3794   89.9210    6.4874 C.1     1  UNL1       -0.0497
     11 C          60.1032   90.7800    5.2892 C.1     1  UNL1       -0.0095
     12 C          59.8271   91.6390    4.0908 C.1     1  UNL1       -0.0138
     13 C          59.5510   92.4980    2.8925 C.1     1  UNL1       -0.0760
     14 C          59.2749   93.3570    1.6943 C.3     1  UNL1        0.1001
     15 C          58.6963   93.5228    0.3204 C.3     1  UNL1        0.0519
     16 C          59.3752   94.6790    0.9927 C.3     1  UNL1        0.1726
     17 F          60.1077   95.4717    2.0344 F       1  UNL1       -0.2364
     18 C          59.2212   95.7258   -0.0706 C.3     1  UNL1        0.1706
     19 O          57.8578   96.2428   -0.4223 O.3     1  UNL1       -0.3793
     20 H          57.3342   95.5295   -0.8198 H       1  UNL1        0.2106
     21 C          61.7820   85.5594   12.5718 C.3     1  UNL1        0.0977
     22 C          63.1970   85.2716   12.9782 C.3     1  UNL1        0.0524
     23 C          63.8250   82.8237   14.5947 C.3     1  UNL1        0.0331
     24 C          63.5110   84.0477   13.7865 C.3     1  UNL1        0.1820
     25 C          63.5517   83.2287   12.5304 C.2     1  UNL1        0.2640
     26 O          62.4444   82.2628   12.2287 O.2     1  UNL1       -0.2713
     27 N          64.6996   83.3755   11.5762 N.am    1  UNL1       -0.1956
     28 O          64.7403   82.5565   10.3202 O.3     1  UNL1       -0.2951
     29 H          65.4264   84.0094   11.7742 H       1  UNL1        0.1823
     30 H          63.9552   81.9883   10.2791 H       1  UNL1        0.2414
     31 S          63.4703   84.8666   15.0425 S.O2    1  UNL1       -0.0034
     32 C          63.4296   85.6854   16.2986 C.3     1  UNL1        0.1765
     33 O          62.3640   84.0019   15.5703 O.2     1  UNL1       -0.1726
     34 O          64.5765   85.7312   14.5147 O.2     1  UNL1       -0.1726
@<TRIPOS>BOND
     1    24    23    1
     2    24    22    1
     3    22    21    1
     4    21     1    1
     5     1     2    1
     6     2     3    1
     7     3     4   ar
     8     4     5   ar
     9     5    10    1
    10    10    11    3
    11    11    12    1
    12    12    13    3
    13    14    13    1
    14    14    15    1
    15    15    16    1
    16    16    17    1
    17    16    18    1
    18    18    19    1
    19     5     6   ar
    20     6     7   ar
    21     7     8   am
    22     8     9    2
    23    24    25    1
    24    25    26    2
    25    25    27   am
    26    27    28    1
    27    24    31    1
    28    31    32    1
    29    31    33    2
    30    31    34    2
    31     8     1   am
    32     7     3   ar
    33    16    14    1
    34    19    20    1
    35    27    29    1
    36    28    30    1
@<TRIPOS>MOLECULE
*****
 34 36 0 0 0
SMALL
GASTEIGER

@<TRIPOS>ATOM
      1 N          63.5588   96.4124   -3.0745 N.am    1  UNL1       -0.2560
      2 C          64.9309   96.2319   -2.4956 C.3     1  UNL1        0.1394
      3 C          64.8222   96.3388   -1.0034 C.ar    1  UNL1        0.0662
      4 C          65.6030   96.2933    0.2765 C.ar    1  UNL1        0.0247
      5 C          64.6464   96.5118    1.4110 C.ar    1  UNL1        0.0614
      6 C          63.2744   96.6924    0.8323 C.ar    1  UNL1        0.0922
      7 N          63.3830   96.5855   -0.6600 N.ar    1  UNL1       -0.2624
      8 C          62.6022   96.6310   -1.9399 C.2     1  UNL1        0.3234
      9 O          61.1243   96.8556   -2.0636 O.2     1  UNL1       -0.2490
     10 C          64.9997   96.5441    2.8685 C.1     1  UNL1       -0.0497
     11 C          65.3531   96.5764    4.3259 C.1     1  UNL1       -0.0095
     12 C          65.7063   96.6087    5.7834 C.1     1  UNL1       -0.0138
     13 C          66.0597   96.6411    7.2408 C.1     1  UNL1       -0.0760
     14 C          66.4130   96.6734    8.6982 C.3     1  UNL1        0.1001
     15 C          67.4330   96.8484    9.7840 C.3     1  UNL1        0.0519
     16 C          66.0051   96.5545   10.1368 C.3     1  UNL1        0.1726
     17 F          64.5424   96.2671    9.9697 F       1  UNL1       -0.2364
     18 C          66.1050   96.5353   11.6333 C.3     1  UNL1        0.1706
     19 O          65.8557   95.2616   12.3854 O.3     1  UNL1       -0.3793
     20 H          64.9271   95.0012   12.2815 H       1  UNL1        0.2106
     21 C          63.2055   96.3802   -4.5318 C.3     1  UNL1        0.0977
     22 C          62.6370   95.1315   -5.1383 C.3     1  UNL1        0.0524
     23 C          63.7962   92.4571   -4.4288 C.3     1  UNL1        0.0331
     24 C          63.2166   93.7943   -4.7836 C.3     1  UNL1        0.1820
     25 C          62.2618   93.6860   -3.6318 C.2     1  UNL1        0.2640
     26 O          60.8209   94.0609   -3.8142 O.2     1  UNL1       -0.2713
     27 N          62.7479   93.2028   -2.2976 N.am    1  UNL1       -0.1956
     28 O          61.7932   93.0945   -1.1457 O.3     1  UNL1       -0.2951
     29 H          63.6936   92.9567   -2.1778 H       1  UNL1        0.1823
     30 H          60.9090   93.3732   -1.4313 H       1  UNL1        0.2414
     31 S          64.1713   93.9025   -5.9354 S.O2    1  UNL1       -0.0034
     32 C          65.1261   94.0108   -7.0872 C.3     1  UNL1        0.1765
     33 O          63.0157   93.9212   -6.8916 O.2     1  UNL1       -0.1726
     34 O          65.3269   93.8839   -4.9793 O.2     1  UNL1       -0.1726
@<TRIPOS>BOND
     1    24    23    1
     2    24    22    1
     3    22    21    1
     4    21     1    1
     5     1     2    1
     6     2     3    1
     7     3     4   ar
     8     4     5   ar
     9     5    10    1
    10    10    11    3
    11    11    12    1
    12    12    13    3
    13    14    13    1
    14    14    15    1
    15    15    16    1
    16    16    17    1
    17    16    18    1
    18    18    19    1
    19     5     6   ar
    20     6     7   ar
    21     7     8   am
    22     8     9    2
    23    24    25    1
    24    25    26    2
    25    25    27   am
    26    27    28    1
    27    24    31    1
    28    31    32    1
    29    31    33    2
    30    31    34    2
    31     8     1   am
    32     7     3   ar
    33    16    14    1
    34    19    20    1
    35    27    29    1
    36    28    30    1
@<TRIPOS>MOLECULE
*****
 34 36 0 0 0
SMALL
GASTEIGER

@<TRIPOS>ATOM
      1 N          59.8626   95.7559   -1.9639 N.am    1  UNL1       -0.2560
      2 C          59.5289   96.2094   -0.5736 C.3     1  UNL1        0.1394
      3 C          59.6410   95.0249    0.3399 C.ar    1  UNL1        0.0662
      4 C          59.5040   94.5732    1.7637 C.ar    1  UNL1        0.0247
      5 C          59.8224   93.1084    1.8179 C.ar    1  UNL1        0.0614
      6 C          60.1561   92.6548    0.4276 C.ar    1  UNL1        0.0922
      7 N          60.0440   93.8393   -0.4859 N.ar    1  UNL1       -0.2624
      8 C          60.1810   94.2910   -1.9097 C.2     1  UNL1        0.3234
      9 O          60.5683   93.4292   -3.0747 O.2     1  UNL1       -0.2490
     10 C          59.8093   92.2482    3.0466 C.1     1  UNL1       -0.0497
     11 C          59.7962   91.3879    4.2754 C.1     1  UNL1       -0.0095
     12 C          59.7831   90.5278    5.5042 C.1     1  UNL1       -0.0138
     13 C          59.7700   89.6676    6.7330 C.1     1  UNL1       -0.0760
     14 C          59.7568   88.8076    7.9618 C.3     1  UNL1        0.1001
     15 C          59.3664   87.5344    8.6521 C.3     1  UNL1        0.0519
     16 C          60.1244   88.5909    9.3999 C.3     1  UNL1        0.1726
     17 F          60.8411   89.8780    9.6822 F       1  UNL1       -0.2364
     18 C          60.2431   87.9274   10.7399 C.3     1  UNL1        0.1706
     19 O          59.3794   88.3795   11.8799 O.3     1  UNL1       -0.3793
     20 H          59.6182   89.2868   12.1264 H       1  UNL1        0.2106
     21 C          59.8757   96.6161   -3.1926 C.3     1  UNL1        0.0977
     22 C          58.6431   96.7331   -4.0394 C.3     1  UNL1        0.0524
     23 C          57.6802   94.3730   -5.6213 C.3     1  UNL1        0.0331
     24 C          58.1616   95.5531   -4.8303 C.3     1  UNL1        0.1820
     25 C          59.3320   95.6969   -5.7574 C.2     1  UNL1        0.2640
     26 O          59.3972   96.8546   -6.7090 O.2     1  UNL1       -0.2713
     27 N          60.4372   94.6831   -5.7330 N.am    1  UNL1       -0.1956
     28 O          61.6076   94.8269   -6.6602 O.3     1  UNL1       -0.2951
     29 H          60.3945   93.9232   -5.1085 H       1  UNL1        0.1823
     30 H          61.4938   95.6223   -7.2036 H       1  UNL1        0.2414
     31 S          56.9913   95.4091   -3.9033 S.O2    1  UNL1       -0.0034
     32 C          55.8209   95.2653   -2.9762 C.3     1  UNL1        0.1765
     33 O          56.6490   96.8547   -4.1111 O.2     1  UNL1       -0.1726
     34 O          57.3336   93.9637   -3.6955 O.2     1  UNL1       -0.1726
@<TRIPOS>BOND
     1    24    23    1
     2    24    22    1
     3    22    21    1
     4    21     1    1
     5     1     2    1
     6     2     3    1
     7     3     4   ar
     8     4     5   ar
     9     5    10    1
    10    10    11    3
    11    11    12    1
    12    12    13    3
    13    14    13    1
    14    14    15    1
    15    15    16    1
    16    16    17    1
    17    16    18    1
    18    18    19    1
    19     5     6   ar
    20     6     7   ar
    21     7     8   am
    22     8     9    2
    23    24    25    1
    24    25    26    2
    25    25    27   am
    26    27    28    1
    27    24    31    1
    28    31    32    1
    29    31    33    2
    30    31    34    2
    31     8     1   am
    32     7     3   ar
    33    16    14    1
    34    19    20    1
    35    27    29    1
    36    28    30    1
@<TRIPOS>MOLECULE
*****
 34 36 0 0 0
SMALL
GASTEIGER

@<TRIPOS>ATOM
      1 N          61.1562   86.4255   11.0160 N.am    1  UNL1       -0.2560
      2 C          60.6360   86.0143    9.6706 C.3     1  UNL1        0.1394
      3 C          60.5570   87.2401    8.8096 C.ar    1  UNL1        0.0662
      4 C          60.1867   87.7435    7.4460 C.ar    1  UNL1        0.0247
      5 C          60.4293   89.2234    7.4166 C.ar    1  UNL1        0.0614
      6 C          60.9495   89.6347    8.7620 C.ar    1  UNL1        0.0922
      7 N          61.0285   88.4089    9.6230 N.ar    1  UNL1       -0.2624
      8 C          61.3988   87.9056   10.9866 C.2     1  UNL1        0.3234
      9 O          61.9202   88.7363   12.1215 O.2     1  UNL1       -0.2490
     10 C          60.1931   90.1325    6.2471 C.1     1  UNL1       -0.0497
     11 C          59.9569   91.0416    5.0776 C.1     1  UNL1       -0.0095
     12 C          59.7206   91.9507    3.9080 C.1     1  UNL1       -0.0138
     13 C          59.4843   92.8598    2.7385 C.1     1  UNL1       -0.0760
     14 C          59.2481   93.7688    1.5691 C.3     1  UNL1        0.1001
     15 C          59.4431   95.0938    0.8935 C.3     1  UNL1        0.0519
     16 C          58.6439   94.0185    0.2190 C.3     1  UNL1        0.1726
     17 F          57.9737   92.6971   -0.0147 F       1  UNL1       -0.2364
     18 C          58.2724   94.7270   -1.0499 C.3     1  UNL1        0.1706
     19 O          59.1786   94.6535   -2.2429 O.3     1  UNL1       -0.3793
     20 H          60.0134   95.1054   -2.0432 H       1  UNL1        0.2106
     21 C          61.3924   85.5165   12.1855 C.3     1  UNL1        0.0977
     22 C          62.7726   85.0014   12.4684 C.3     1  UNL1        0.0524
     23 C          63.1782   82.8413   14.5102 C.3     1  UNL1        0.0331
     24 C          62.9754   83.9214   13.4892 C.3     1  UNL1        0.1820
     25 C          62.9661   84.9508   14.5802 C.2     1  UNL1        0.2640
     26 O          63.8273   86.1735   14.4650 O.2     1  UNL1       -0.2713
     27 N          62.0957   84.7574   15.7864 N.am    1  UNL1       -0.1956
     28 O          62.0864   85.7868   16.8774 O.3     1  UNL1       -0.2951
     29 H          61.5305   83.9549   15.8620 H       1  UNL1        0.1823
     30 H          62.6940   86.5072   16.6474 H       1  UNL1        0.2414
     31 S          62.9847   82.8919   12.3984 S.O2    1  UNL1       -0.0034
     32 C          62.9939   81.8624   11.3075 C.3     1  UNL1        0.1765
     33 O          61.9948   82.0681   13.1674 O.2     1  UNL1       -0.1726
     34 O          63.9745   83.7156   11.6293 O.2     1  UNL1       -0.1726
@<TRIPOS>BOND
     1    24    23    1
     2    24    22    1
     3    22    21    1
     4    21     1    1
     5     1     2    1
     6     2     3    1
     7     3     4   ar
     8     4     5   ar
     9     5    10    1
    10    10    11    3
    11    11    12    1
    12    12    13    3
    13    14    13    1
    14    14    15    1
    15    15    16    1
    16    16    17    1
    17    16    18    1
    18    18    19    1
    19     5     6   ar
    20     6     7   ar
    21     7     8   am
    22     8     9    2
    23    24    25    1
    24    25    26    2
    25    25    27   am
    26    27    28    1
    27    24    31    1
    28    31    32    1
    29    31    33    2
    30    31    34    2
    31     8     1   am
    32     7     3   ar
    33    16    14    1
    34    19    20    1
    35    27    29    1
    36    28    30    1
@<TRIPOS>MOLECULE
*****
 34 36 0 0 0
SMALL
GASTEIGER

@<TRIPOS>ATOM
      1 N          59.8781   95.7421   -1.8861 N.am    1  UNL1       -0.2560
      2 C          58.7446   94.8680   -1.4376 C.3     1  UNL1        0.1394
      3 C          59.1572   94.1910   -0.1642 C.ar    1  UNL1        0.0662
      4 C          58.7116   93.2323    0.9000 C.ar    1  UNL1        0.0247
      5 C          59.8247   93.0956    1.8961 C.ar    1  UNL1        0.0614
      6 C          60.9581   93.9697    1.4477 C.ar    1  UNL1        0.0922
      7 N          60.5456   94.6467    0.1743 N.ar    1  UNL1       -0.2624
      8 C          60.9912   95.6054   -0.8899 C.2     1  UNL1        0.3234
      9 O          62.3170   96.3045   -0.9477 O.2     1  UNL1       -0.2490
     10 C          59.8073   92.2357    3.1251 C.1     1  UNL1       -0.0497
     11 C          59.7900   91.3758    4.3540 C.1     1  UNL1       -0.0095
     12 C          59.7726   90.5160    5.5830 C.1     1  UNL1       -0.0138
     13 C          59.7553   89.6561    6.8120 C.1     1  UNL1       -0.0760
     14 C          59.7379   88.7963    8.0409 C.3     1  UNL1        0.1001
     15 C          59.3901   87.5031    8.7167 C.3     1  UNL1        0.0519
     16 C          60.0557   88.6000    9.4937 C.3     1  UNL1        0.1726
     17 F          60.6871   89.9250    9.8034 F       1  UNL1       -0.2364
     18 C          60.1542   87.9438   10.8389 C.3     1  UNL1        0.1706
     19 O          59.3515   88.4709   11.9912 O.3     1  UNL1       -0.3793
     20 H          59.6622   89.3605   12.2215 H       1  UNL1        0.2106
     21 C          59.8955   96.6020   -3.1150 C.3     1  UNL1        0.0977
     22 C          58.8650   96.4002   -4.1863 C.3     1  UNL1        0.0524
     23 C          59.0394   94.0219   -6.0065 C.3     1  UNL1        0.0331
     24 C          58.9522   95.2111   -5.0964 C.3     1  UNL1        0.1820
     25 C          57.6668   94.6840   -4.5309 C.2     1  UNL1        0.2640
     26 O          57.5338   93.2265   -4.2023 O.2     1  UNL1       -0.2713
     27 N          56.5143   95.6144   -4.2939 N.am    1  UNL1       -0.1956
     28 O          55.2289   95.0872   -3.7284 O.3     1  UNL1       -0.2951
     29 H          56.6016   96.5710   -4.5096 H       1  UNL1        0.1823
     30 H          55.3107   94.1331   -3.5743 H       1  UNL1        0.2414
     31 S          60.2376   95.7381   -5.6619 S.O2    1  UNL1       -0.0034
     32 C          61.5230   96.2653   -6.2275 C.3     1  UNL1        0.1765
     33 O          59.4843   96.8386   -6.3486 O.2     1  UNL1       -0.1726
     34 O          60.9910   94.6378   -4.9753 O.2     1  UNL1       -0.1726
@<TRIPOS>BOND
     1    24    23    1
     2    24    22    1
     3    22    21    1
     4    21     1    1
     5     1     2    1
     6     2     3    1
     7     3     4   ar
     8     4     5   ar
     9     5    10    1
    10    10    11    3
    11    11    12    1
    12    12    13    3
    13    14    13    1
    14    14    15    1
    15    15    16    1
    16    16    17    1
    17    16    18    1
    18    18    19    1
    19     5     6   ar
    20     6     7   ar
    21     7     8   am
    22     8     9    2
    23    24    25    1
    24    25    26    2
    25    25    27   am
    26    27    28    1
    27    24    31    1
    28    31    32    1
    29    31    33    2
    30    31    34    2
    31     8     1   am
    32     7     3   ar
    33    16    14    1
    34    19    20    1
    35    27    29    1
    36    28    30    1
@<TRIPOS>MOLECULE
*****
 34 36 0 0 0
SMALL
GASTEIGER

@<TRIPOS>ATOM
      1 N          63.0497   95.8850   -2.3555 N.am    1  UNL1       -0.2560
      2 C          64.2470   96.6247   -1.8364 C.3     1  UNL1        0.1394
      3 C          64.2964   96.4408   -0.3486 C.ar    1  UNL1        0.0662
      4 C          65.0670   96.7843    0.8917 C.ar    1  UNL1        0.0247
      5 C          64.3764   96.1431    2.0588 C.ar    1  UNL1        0.0614
      6 C          63.1791   95.4034    1.5398 C.ar    1  UNL1        0.0922
      7 N          63.1297   95.5874    0.0520 N.ar    1  UNL1       -0.2624
      8 C          62.3591   95.2439   -1.1883 C.2     1  UNL1        0.3234
      9 O          61.1163   94.4063   -1.2505 O.2     1  UNL1       -0.2490
     10 C          64.8075   96.2270    3.4931 C.1     1  UNL1       -0.0497
     11 C          65.2386   96.3108    4.9273 C.1     1  UNL1       -0.0095
     12 C          65.6697   96.3947    6.3616 C.1     1  UNL1       -0.0138
     13 C          66.1009   96.4786    7.7959 C.1     1  UNL1       -0.0760
     14 C          66.5320   96.5626    9.2301 C.3     1  UNL1        0.1001
     15 C          67.5909   96.8468   10.2537 C.3     1  UNL1        0.0519
     16 C          66.2198   96.4236   10.6907 C.3     1  UNL1        0.1726
     17 F          64.7839   95.9973   10.6107 F       1  UNL1       -0.2364
     18 C          66.4062   96.4328   12.1790 C.3     1  UNL1        0.1706
     19 O          66.0996   95.2028   12.9809 O.3     1  UNL1       -0.3793
     20 H          65.1485   95.0174   12.9377 H       1  UNL1        0.2106
     21 C          62.6186   95.8011   -3.7897 C.3     1  UNL1        0.0977
     22 C          62.2174   94.4801   -4.3763 C.3     1  UNL1        0.0524
     23 C          62.6574   93.9388   -7.2940 C.3     1  UNL1        0.0331
     24 C          62.4374   94.2095   -5.8351 C.3     1  UNL1        0.1820
     25 C          63.6964   93.4631   -5.5068 C.2     1  UNL1        0.2640
     26 O          64.9450   93.7134   -6.2994 O.2     1  UNL1       -0.2713
     27 N          63.7068   92.4663   -4.3860 N.am    1  UNL1       -0.1956
     28 O          64.9658   91.7200   -4.0577 O.3     1  UNL1       -0.2951
     29 H          62.8873   92.3020   -3.8657 H       1  UNL1        0.1823
     30 H          65.6731   91.9981   -4.6605 H       1  UNL1        0.2414
     31 S          61.1784   94.9558   -6.1635 S.O2    1  UNL1       -0.0034
     32 C          59.9194   95.7022   -6.4919 C.3     1  UNL1        0.1765
     33 O          61.8499   95.5619   -7.3601 O.2     1  UNL1       -0.1726
     34 O          60.5069   94.3498   -4.9670 O.2     1  UNL1       -0.1726
@<TRIPOS>BOND
     1    24    23    1
     2    24    22    1
     3    22    21    1
     4    21     1    1
     5     1     2    1
     6     2     3    1
     7     3     4   ar
     8     4     5   ar
     9     5    10    1
    10    10    11    3
    11    11    12    1
    12    12    13    3
    13    14    13    1
    14    14    15    1
    15    15    16    1
    16    16    17    1
    17    16    18    1
    18    18    19    1
    19     5     6   ar
    20     6     7   ar
    21     7     8   am
    22     8     9    2
    23    24    25    1
    24    25    26    2
    25    25    27   am
    26    27    28    1
    27    24    31    1
    28    31    32    1
    29    31    33    2
    30    31    34    2
    31     8     1   am
    32     7     3   ar
    33    16    14    1
    34    19    20    1
    35    27    29    1
    36    28    30    1
@<TRIPOS>MOLECULE
*****
 34 36 0 0 0
SMALL
GASTEIGER

@<TRIPOS>ATOM
      1 N          59.1020   92.2481    3.7135 N.am    1  UNL1       -0.2560
      2 C          60.4925   91.7806    4.0267 C.3     1  UNL1        0.1394
      3 C          60.4152   90.8498    5.2004 C.ar    1  UNL1        0.0662
      4 C          61.2269   89.9856    6.1193 C.ar    1  UNL1        0.0247
      5 C          60.2903   89.3437    7.0994 C.ar    1  UNL1        0.0614
      6 C          58.8998   89.8111    6.7863 C.ar    1  UNL1        0.0922
      7 N          58.9770   90.7420    5.6126 N.ar    1  UNL1       -0.2624
      8 C          58.1654   91.6062    4.6937 C.2     1  UNL1        0.3234
      9 O          56.6782   91.7953    4.7458 O.2     1  UNL1       -0.2490
     10 C          60.6763   88.3999    8.1996 C.1     1  UNL1       -0.0497
     11 C          61.0624   87.4562    9.2998 C.1     1  UNL1       -0.0095
     12 C          61.4486   86.5125   10.3999 C.1     1  UNL1       -0.0138
     13 C          61.8347   85.5688   11.5002 C.1     1  UNL1       -0.0760
     14 C          62.2208   84.6252   12.6003 C.3     1  UNL1        0.1001
     15 C          62.4854   84.3625   14.0532 C.3     1  UNL1        0.0519
     16 C          62.6250   83.2535   13.0530 C.3     1  UNL1        0.1726
     17 F          62.6242   82.5341   11.7368 F       1  UNL1       -0.2364
     18 C          63.0296   82.1315   13.9628 C.3     1  UNL1        0.1706
     19 O          62.0423   81.5647   14.9395 O.3     1  UNL1       -0.3793
     20 H          61.8193   82.2379   15.6013 H       1  UNL1        0.2106
     21 C          58.7159   93.1918    2.6134 C.3     1  UNL1        0.0977
     22 C          59.7767   93.9288    1.8507 C.3     1  UNL1        0.0524
     23 C          60.9406   92.7288   -0.6402 C.3     1  UNL1        0.0331
     24 C          60.3587   93.3288    0.6053 C.3     1  UNL1        0.1820
     25 C          58.9934   93.2917   -0.0148 C.2     1  UNL1        0.2640
     26 O          58.2240   94.5642   -0.2114 O.2     1  UNL1       -0.2713
     27 N          58.3974   91.9819   -0.4384 N.am    1  UNL1       -0.1956
     28 O          57.0321   91.9447   -1.0586 O.3     1  UNL1       -0.2951
     29 H          58.9024   91.1467   -0.3094 H       1  UNL1        0.1823
     30 H          56.6768   92.8457   -1.1123 H       1  UNL1        0.2414
     31 S          61.7240   93.3660    1.2253 S.O2    1  UNL1       -0.0034
     32 C          63.0893   93.4030    1.8453 C.3     1  UNL1        0.1765
     33 O          61.9197   91.9192    0.8810 O.2     1  UNL1       -0.1726
     34 O          61.5283   94.8126    1.5697 O.2     1  UNL1       -0.1726
@<TRIPOS>BOND
     1    24    23    1
     2    24    22    1
     3    22    21    1
     4    21     1    1
     5     1     2    1
     6     2     3    1
     7     3     4   ar
     8     4     5   ar
     9     5    10    1
    10    10    11    3
    11    11    12    1
    12    12    13    3
    13    14    13    1
    14    14    15    1
    15    15    16    1
    16    16    17    1
    17    16    18    1
    18    18    19    1
    19     5     6   ar
    20     6     7   ar
    21     7     8   am
    22     8     9    2
    23    24    25    1
    24    25    26    2
    25    25    27   am
    26    27    28    1
    27    24    31    1
    28    31    32    1
    29    31    33    2
    30    31    34    2
    31     8     1   am
    32     7     3   ar
    33    16    14    1
    34    19    20    1
    35    27    29    1
    36    28    30    1
@<TRIPOS>MOLECULE
*****
 34 36 0 0 0
SMALL
GASTEIGER

@<TRIPOS>ATOM
      1 N          62.1562   95.8675   -2.4626 N.am    1  UNL1       -0.2560
      2 C          63.3253   96.7000   -2.0264 C.3     1  UNL1        0.1394
      3 C          63.5299   96.4779   -0.5571 C.ar    1  UNL1        0.0662
      4 C          64.3789   96.8552    0.6206 C.ar    1  UNL1        0.0247
      5 C          63.8610   96.1187    1.8203 C.ar    1  UNL1        0.0614
      6 C          62.6919   95.2862    1.3841 C.ar    1  UNL1        0.0922
      7 N          62.4873   95.5082   -0.0852 N.ar    1  UNL1       -0.2624
      8 C          61.6383   95.1310   -1.2629 C.2     1  UNL1        0.3234
      9 O          60.4755   94.1835   -1.2441 O.2     1  UNL1       -0.2490
     10 C          64.4149   96.2002    3.2119 C.1     1  UNL1       -0.0497
     11 C          64.9688   96.2818    4.6035 C.1     1  UNL1       -0.0095
     12 C          65.5228   96.3634    5.9951 C.1     1  UNL1       -0.0138
     13 C          66.0768   96.4450    7.3866 C.1     1  UNL1       -0.0760
     14 C          66.6307   96.5267    8.7781 C.3     1  UNL1        0.1001
     15 C          67.8070   96.6071    9.7054 C.3     1  UNL1        0.0519
     16 C          66.4140   96.5876   10.2612 C.3     1  UNL1        0.1726
     17 F          64.9154   96.5413   10.3074 F       1  UNL1       -0.2364
     18 C          66.7176   96.6646   11.7281 C.3     1  UNL1        0.1706
     19 O          65.9366   95.8312   12.7004 O.3     1  UNL1       -0.3793
     20 H          65.0127   96.1264   12.7102 H       1  UNL1        0.2106
     21 C          61.6023   95.7860   -3.8541 C.3     1  UNL1        0.0977
     22 C          61.5684   94.4692   -4.5720 C.3     1  UNL1        0.0524
     23 C          62.4342   94.3012   -7.4393 C.3     1  UNL1        0.0331
     24 C          62.0013   94.3852   -6.0056 C.3     1  UNL1        0.1820
     25 C          60.6314   94.8105   -6.4442 C.2     1  UNL1        0.2640
     26 O          60.4753   95.8190   -7.5436 O.2     1  UNL1       -0.2713
     27 N          59.4176   94.2274   -5.7835 N.am    1  UNL1       -0.1956
     28 O          58.0476   94.6527   -6.2221 O.3     1  UNL1       -0.2951
     29 H          59.5200   93.5655   -5.0619 H       1  UNL1        0.1823
     30 H          58.1247   95.3046   -6.9362 H       1  UNL1        0.2414
     31 S          63.3712   93.9599   -5.5671 S.O2    1  UNL1       -0.0034
     32 C          64.7411   93.5345   -5.1285 C.3     1  UNL1        0.1765
     33 O          62.7608   93.0501   -4.5425 O.2     1  UNL1       -0.1726
     34 O          63.9817   94.8696   -6.5915 O.2     1  UNL1       -0.1726
@<TRIPOS>BOND
     1    24    23    1
     2    24    22    1
     3    22    21    1
     4    21     1    1
     5     1     2    1
     6     2     3    1
     7     3     4   ar
     8     4     5   ar
     9     5    10    1
    10    10    11    3
    11    11    12    1
    12    12    13    3
    13    14    13    1
    14    14    15    1
    15    15    16    1
    16    16    17    1
    17    16    18    1
    18    18    19    1
    19     5     6   ar
    20     6     7   ar
    21     7     8   am
    22     8     9    2
    23    24    25    1
    24    25    26    2
    25    25    27   am
    26    27    28    1
    27    24    31    1
    28    31    32    1
    29    31    33    2
    30    31    34    2
    31     8     1   am
    32     7     3   ar
    33    16    14    1
    34    19    20    1
    35    27    29    1
    36    28    30    1
