@<TRIPOS>MOLECULE
*****
 33 38 0 0 0
SMALL
GASTEIGER

@<TRIPOS>ATOM
      1 C          63.3775   89.7364   12.9255 C.ar    1  UNL1        0.0212
      2 C          63.1601   89.5215   14.3940 C.ar    1  UNL1        0.0328
      3 C          63.8407   90.4118   15.3912 C.ar    1  UNL1        0.1610
      4 F          63.6232   90.1968   16.8597 F       1  UNL1       -0.2025
      5 C          64.7387   91.5169   14.9197 C.ar    1  UNL1        0.1494
      6 N          65.5383   92.5461   15.6622 N.ar    1  UNL1       -0.1262
      7 N          66.2499   93.3971   14.6526 N.ar    1  UNL1       -0.0598
      8 N          65.8901   92.8938   13.2861 N.ar    1  UNL1       -0.2140
      9 C          64.9561   91.7317   13.4512 C.ar    1  UNL1        0.1057
     10 C          64.2755   90.8415   12.4541 C.ar    1  UNL1        0.0224
     11 C          66.3786   93.4542   11.9832 C.2     1  UNL1        0.0681
     12 C          67.0526   92.5580   10.9870 C.2     1  UNL1        0.0153
     13 C          67.5411   93.1183    9.6841 C.2     1  UNL1        0.0041
     14 C          67.3556   94.5748    9.3775 C.2     1  UNL1        0.0367
     15 C          67.7302   95.4054    8.1859 C.2     1  UNL1        0.1233
     16 N          67.2877   96.8149    8.4457 N.2     1  UNL1       -0.1467
     17 N          66.6396   96.8555    9.7980 N.2     1  UNL1       -0.1519
     18 C          66.6815   95.4710   10.3739 C.2     1  UNL1        0.0880
     19 C          66.1930   94.9107   11.6767 C.3     1  UNL1        0.0934
     20 N          62.7526   87.3474   11.9020 N.ar    1  UNL1       -0.2464
     21 N          61.9312   86.8734   10.7398 N.ar    1  UNL1       -0.1674
     22 C          61.3679   88.0792   10.0479 C.ar    1  UNL1        0.1217
     23 C          61.8411   89.2984   10.7824 C.ar    1  UNL1        0.0412
     24 C          62.6969   88.8461   11.9283 C.ar    1  UNL1        0.0799
     25 C          63.4986   86.4757   12.8682 C.3     1  UNL1        0.1538
     26 C          62.5847   82.0755   13.0972 C.ar    1  UNL1        0.0684
     27 C          63.0586   82.6770   11.8073 C.ar    1  UNL1        0.0100
     28 C          63.3633   84.1437   11.7309 C.ar    1  UNL1       -0.0016
     29 C          63.1940   85.0089   12.9445 C.ar    1  UNL1        0.0021
     30 C          62.7201   84.4075   14.2344 C.ar    1  UNL1       -0.0016
     31 C          62.4155   82.9407   14.3107 C.ar    1  UNL1        0.0100
     32 N          61.9756   79.1419   13.2496 N.1     1  UNL1       -0.1908
     33 C          62.2801   80.6087   13.1734 C.1     1  UNL1        0.1004
@<TRIPOS>BOND
     1    32    33    3
     2    33    26    1
     3    26    27   ar
     4    27    28   ar
     5    28    29   ar
     6    29    25    1
     7    25    20    1
     8    20    21   ar
     9    21    22   ar
    10    22    23   ar
    11    23    24   ar
    12    24     1    1
    13     1     2   ar
    14     2     3   ar
    15     3     4    1
    16     3     5   ar
    17     5     6   ar
    18     6     7   ar
    19     7     8   ar
    20     8    11    1
    21    11    12    2
    22    12    13    1
    23    13    14    2
    24    14    15    1
    25    15    16    2
    26    16    17    1
    27    17    18    2
    28    18    19    1
    29     8     9   ar
    30     9    10   ar
    31    29    30   ar
    32    30    31   ar
    33    31    26   ar
    34    24    20   ar
    35    10     1   ar
    36     9     5   ar
    37    19    11    1
    38    18    14    1
@<TRIPOS>MOLECULE
*****
 33 38 0 0 0
SMALL
GASTEIGER

@<TRIPOS>ATOM
      1 C          63.9536   89.4444   14.6537 C.ar    1  UNL1        0.0212
      2 C          64.9384   90.5349   14.9549 C.ar    1  UNL1        0.0328
      3 C          65.2587   91.5652   13.9128 C.ar    1  UNL1        0.1610
      4 F          66.2435   92.6558   14.2141 F       1  UNL1       -0.2025
      5 C          64.5941   91.5048   12.5694 C.ar    1  UNL1        0.1494
      6 N          64.7094   92.3744   11.3526 N.ar    1  UNL1       -0.1262
      7 N          63.7958   91.8212   10.2994 N.ar    1  UNL1       -0.0598
      8 N          63.1159   90.6098   10.8652 N.ar    1  UNL1       -0.2140
      9 C          63.6093   90.4142   12.2682 C.ar    1  UNL1        0.1057
     10 C          63.2890   89.3840   13.3103 C.ar    1  UNL1        0.0224
     11 C          62.1179   89.7456   10.1530 C.2     1  UNL1        0.0681
     12 C          60.7621   90.2898    9.8131 C.2     1  UNL1        0.0153
     13 C          59.7640   89.4257    9.1009 C.2     1  UNL1        0.0041
     14 C          60.1217   88.0174    8.7287 C.2     1  UNL1        0.0367
     15 C          59.3512   86.9377    8.0283 C.2     1  UNL1        0.1233
     16 N          60.2308   85.7262    7.9354 N.2     1  UNL1       -0.1467
     17 N          61.5450   86.0571    8.5784 N.2     1  UNL1       -0.1519
     18 C          61.4776   87.4732    9.0688 C.2     1  UNL1        0.0880
     19 C          62.4756   88.3372    9.7809 C.3     1  UNL1        0.0934
     20 N          63.9572   86.9516   15.6186 N.ar    1  UNL1       -0.2464
     21 N          63.4569   86.2991   16.8732 N.ar    1  UNL1       -0.1674
     22 C          62.8238   87.3585   17.7258 C.ar    1  UNL1        0.1217
     23 C          62.9328   88.6656   16.9982 C.ar    1  UNL1        0.0412
     24 C          63.6333   88.4141   15.6958 C.ar    1  UNL1        0.0799
     25 C          64.6583   86.2624   14.4856 C.3     1  UNL1        0.1538
     26 C          63.2847   82.1976   13.1291 C.ar    1  UNL1        0.0684
     27 C          63.0335   83.4001   12.2682 C.ar    1  UNL1        0.0100
     28 C          63.4914   84.7551   12.7204 C.ar    1  UNL1       -0.0016
     29 C          64.2004   84.9075   14.0335 C.ar    1  UNL1        0.0021
     30 C          64.4515   83.7050   14.8943 C.ar    1  UNL1       -0.0016
     31 C          63.9936   82.3501   14.4421 C.ar    1  UNL1        0.0100
     32 N          62.3688   79.4878   12.2246 N.1     1  UNL1       -0.1908
     33 C          62.8268   80.8427   12.6769 C.1     1  UNL1        0.1004
@<TRIPOS>BOND
     1    32    33    3
     2    33    26    1
     3    26    27   ar
     4    27    28   ar
     5    28    29   ar
     6    29    25    1
     7    25    20    1
     8    20    21   ar
     9    21    22   ar
    10    22    23   ar
    11    23    24   ar
    12    24     1    1
    13     1     2   ar
    14     2     3   ar
    15     3     4    1
    16     3     5   ar
    17     5     6   ar
    18     6     7   ar
    19     7     8   ar
    20     8    11    1
    21    11    12    2
    22    12    13    1
    23    13    14    2
    24    14    15    1
    25    15    16    2
    26    16    17    1
    27    17    18    2
    28    18    19    1
    29     8     9   ar
    30     9    10   ar
    31    29    30   ar
    32    30    31   ar
    33    31    26   ar
    34    24    20   ar
    35    10     1   ar
    36     9     5   ar
    37    19    11    1
    38    18    14    1
@<TRIPOS>MOLECULE
*****
 33 38 0 0 0
SMALL
GASTEIGER

@<TRIPOS>ATOM
      1 C          63.9297   90.4823   13.0748 C.ar    1  UNL1        0.0212
      2 C          63.4988   91.3244   11.9108 C.ar    1  UNL1        0.0328
      3 C          62.8491   90.6829   10.7206 C.ar    1  UNL1        0.1610
      4 F          62.4182   91.5251    9.5566 F       1  UNL1       -0.2025
      5 C          62.6303   89.1991   10.6947 C.ar    1  UNL1        0.1494
      6 N          62.0202   88.2924    9.6672 N.ar    1  UNL1       -0.1262
      7 N          62.0741   86.8899   10.1963 N.ar    1  UNL1       -0.0598
      8 N          62.7174   86.9298   11.5507 N.ar    1  UNL1       -0.2140
      9 C          63.0612   88.3570   11.8588 C.ar    1  UNL1        0.1057
     10 C          63.7109   88.9985   13.0488 C.ar    1  UNL1        0.0224
     11 C          62.9723   85.7496   12.4409 C.2     1  UNL1        0.0681
     12 C          63.7255   85.9281   13.7257 C.2     1  UNL1        0.0153
     13 C          63.9804   84.7479   14.6159 C.2     1  UNL1        0.0041
     14 C          63.4820   83.3894   14.2212 C.2     1  UNL1        0.0367
     15 C          63.5810   82.0505   14.8903 C.2     1  UNL1        0.1233
     16 N          62.8890   81.0446   14.0190 N.2     1  UNL1       -0.1467
     17 N          62.3622   81.7618   12.8113 N.2     1  UNL1       -0.1519
     18 C          62.7287   83.2110   12.9363 C.2     1  UNL1        0.0880
     19 C          62.4739   84.3910   12.0462 C.3     1  UNL1        0.0934
     20 N          65.9770   91.6658   14.3211 N.ar    1  UNL1       -0.2464
     21 N          66.2069   92.2129   15.6988 N.ar    1  UNL1       -0.1674
     22 C          64.9515   92.0090   16.4940 C.ar    1  UNL1        0.1217
     23 C          63.9457   91.3359   15.6079 C.ar    1  UNL1        0.0412
     24 C          64.5795   91.1238   14.2650 C.ar    1  UNL1        0.0799
     25 C          66.9702   91.6615   13.1971 C.3     1  UNL1        0.1538
     26 C          66.7146   94.7736    9.9568 C.ar    1  UNL1        0.0684
     27 C          67.3322   93.4378    9.6667 C.ar    1  UNL1        0.0100
     28 C          67.4174   92.4004   10.7468 C.ar    1  UNL1       -0.0016
     29 C          66.8850   92.6989   12.1170 C.ar    1  UNL1        0.0021
     30 C          66.2673   94.0347   12.4071 C.ar    1  UNL1       -0.0016
     31 C          66.1821   95.0721   11.3270 C.ar    1  UNL1        0.0100
     32 N          66.5443   96.8482    7.7965 N.1     1  UNL1       -0.1908
     33 C          66.6294   95.8109    8.8767 C.1     1  UNL1        0.1004
@<TRIPOS>BOND
     1    32    33    3
     2    33    26    1
     3    26    27   ar
     4    27    28   ar
     5    28    29   ar
     6    29    25    1
     7    25    20    1
     8    20    21   ar
     9    21    22   ar
    10    22    23   ar
    11    23    24   ar
    12    24     1    1
    13     1     2   ar
    14     2     3   ar
    15     3     4    1
    16     3     5   ar
    17     5     6   ar
    18     6     7   ar
    19     7     8   ar
    20     8    11    1
    21    11    12    2
    22    12    13    1
    23    13    14    2
    24    14    15    1
    25    15    16    2
    26    16    17    1
    27    17    18    2
    28    18    19    1
    29     8     9   ar
    30     9    10   ar
    31    29    30   ar
    32    30    31   ar
    33    31    26   ar
    34    24    20   ar
    35    10     1   ar
    36     9     5   ar
    37    19    11    1
    38    18    14    1
@<TRIPOS>MOLECULE
*****
 33 38 0 0 0
SMALL
GASTEIGER

@<TRIPOS>ATOM
      1 C          63.8339   86.5462   14.9641 C.ar    1  UNL1        0.0212
      2 C          63.3246   86.4228   16.3695 C.ar    1  UNL1        0.0328
      3 C          63.0548   87.6556   17.1805 C.ar    1  UNL1        0.1610
      4 F          62.5455   87.5321   18.5860 F       1  UNL1       -0.2025
      5 C          63.2942   89.0117   16.5858 C.ar    1  UNL1        0.1494
      6 N          63.1200   90.3951   17.1390 N.ar    1  UNL1       -0.1262
      7 N          63.5217   91.3734   16.0753 N.ar    1  UNL1       -0.0598
      8 N          63.9440   90.5948   14.8648 N.ar    1  UNL1       -0.2140
      9 C          63.8034   89.1351   15.1803 C.ar    1  UNL1        0.1057
     10 C          64.0733   87.9024   14.3695 C.ar    1  UNL1        0.0224
     11 C          64.4229   91.1740   13.5667 C.2     1  UNL1        0.0681
     12 C          63.6559   90.9186   12.3031 C.2     1  UNL1        0.0153
     13 C          64.1348   91.4979   11.0049 C.2     1  UNL1        0.0041
     14 C          65.3806   92.3326   10.9704 C.2     1  UNL1        0.0367
     15 C          66.0906   93.0301    9.8481 C.2     1  UNL1        0.1233
     16 N          67.2964   93.7165   10.4180 N.2     1  UNL1       -0.1467
     17 N          67.3316   93.4433   11.8926 N.2     1  UNL1       -0.1519
     18 C          66.1476   92.5880   12.2340 C.2     1  UNL1        0.0880
     19 C          65.6688   92.0087   13.5321 C.3     1  UNL1        0.0934
     20 N          63.5698   85.0263   12.7811 N.ar    1  UNL1       -0.2464
     21 N          64.0910   83.6868   12.3519 N.ar    1  UNL1       -0.1674
     22 C          64.9472   83.1462   13.4587 C.ar    1  UNL1        0.1217
     23 C          64.9550   84.1516   14.5719 C.ar    1  UNL1        0.0412
     24 C          64.1037   85.3135   14.1531 C.ar    1  UNL1        0.0799
     25 C          62.6722   85.9213   11.9792 C.3     1  UNL1        0.1538
     26 C          61.9050   85.0307    7.6354 C.ar    1  UNL1        0.0684
     27 C          63.1016   84.4414    8.3219 C.ar    1  UNL1        0.0100
     28 C          63.3573   84.7383    9.7699 C.ar    1  UNL1       -0.0016
     29 C          62.4165   85.6244   10.5312 C.ar    1  UNL1        0.0021
     30 C          61.2200   86.2136    9.8447 C.ar    1  UNL1       -0.0016
     31 C          60.9643   85.9167    8.3968 C.ar    1  UNL1        0.0100
     32 N          61.3938   84.4369    4.7396 N.1     1  UNL1       -0.1908
     33 C          61.6494   84.7337    6.1875 C.1     1  UNL1        0.1004
@<TRIPOS>BOND
     1    32    33    3
     2    33    26    1
     3    26    27   ar
     4    27    28   ar
     5    28    29   ar
     6    29    25    1
     7    25    20    1
     8    20    21   ar
     9    21    22   ar
    10    22    23   ar
    11    23    24   ar
    12    24     1    1
    13     1     2   ar
    14     2     3   ar
    15     3     4    1
    16     3     5   ar
    17     5     6   ar
    18     6     7   ar
    19     7     8   ar
    20     8    11    1
    21    11    12    2
    22    12    13    1
    23    13    14    2
    24    14    15    1
    25    15    16    2
    26    16    17    1
    27    17    18    2
    28    18    19    1
    29     8     9   ar
    30     9    10   ar
    31    29    30   ar
    32    30    31   ar
    33    31    26   ar
    34    24    20   ar
    35    10     1   ar
    36     9     5   ar
    37    19    11    1
    38    18    14    1
@<TRIPOS>MOLECULE
*****
 33 38 0 0 0
SMALL
GASTEIGER

@<TRIPOS>ATOM
      1 C          63.5474   89.8069   13.5899 C.ar    1  UNL1        0.0212
      2 C          63.5872   90.6031   14.8604 C.ar    1  UNL1        0.0328
      3 C          63.5365   89.9031   16.1861 C.ar    1  UNL1        0.1610
      4 F          63.5763   90.6994   17.4567 F       1  UNL1       -0.2025
      5 C          63.4459   88.4068   16.2412 C.ar    1  UNL1        0.1494
      6 N          63.3806   87.4470   17.3920 N.ar    1  UNL1       -0.1262
      7 N          63.3004   86.0575   16.8326 N.ar    1  UNL1       -0.0598
      8 N          63.3162   86.1586   15.3361 N.ar    1  UNL1       -0.2140
      9 C          63.4061   87.6106   14.9706 C.ar    1  UNL1        0.1057
     10 C          63.4568   88.3106   13.6449 C.ar    1  UNL1        0.0224
     11 C          63.2531   85.0095   14.3741 C.2     1  UNL1        0.0681
     12 C          63.4186   85.2528   12.9032 C.2     1  UNL1        0.0153
     13 C          63.3555   84.1037   11.9411 C.2     1  UNL1        0.0041
     14 C          63.1270   82.7113   12.4499 C.2     1  UNL1        0.0367
     15 C          63.0180   81.3909   11.7465 C.2     1  UNL1        0.1233
     16 N          62.7852   80.3315   12.7826 N.2     1  UNL1       -0.1467
     17 N          62.7503   80.9972   14.1264 N.2     1  UNL1       -0.1519
     18 C          62.9615   82.4680   13.9208 C.2     1  UNL1        0.0880
     19 C          63.0246   83.6170   14.8829 C.3     1  UNL1        0.0934
     20 N          62.6415   90.3097   11.1258 N.ar    1  UNL1       -0.2464
     21 N          63.0666   91.2079   10.0021 N.ar    1  UNL1       -0.1674
     22 C          64.2861   91.9602   10.4461 C.ar    1  UNL1        0.1217
     23 C          64.6146   91.5269   11.8440 C.ar    1  UNL1        0.0412
     24 C          63.5982   90.5068   12.2641 C.ar    1  UNL1        0.0799
     25 C          61.4661   89.3779   11.1132 C.3     1  UNL1        0.1538
     26 C          61.1724   86.1685    7.9727 C.ar    1  UNL1        0.0684
     27 C          60.1055   87.2179    8.0746 C.ar    1  UNL1        0.0100
     28 C          60.2033   88.2878    9.1215 C.ar    1  UNL1       -0.0016
     29 C          61.3682   88.3081   10.0663 C.ar    1  UNL1        0.0021
     30 C          62.4351   87.2586    9.9644 C.ar    1  UNL1       -0.0016
     31 C          62.3372   86.1888    8.9175 C.ar    1  UNL1        0.0100
     32 N          60.9766   84.0289    5.8788 N.1     1  UNL1       -0.1908
     33 C          61.0745   85.0987    6.9258 C.1     1  UNL1        0.1004
@<TRIPOS>BOND
     1    32    33    3
     2    33    26    1
     3    26    27   ar
     4    27    28   ar
     5    28    29   ar
     6    29    25    1
     7    25    20    1
     8    20    21   ar
     9    21    22   ar
    10    22    23   ar
    11    23    24   ar
    12    24     1    1
    13     1     2   ar
    14     2     3   ar
    15     3     4    1
    16     3     5   ar
    17     5     6   ar
    18     6     7   ar
    19     7     8   ar
    20     8    11    1
    21    11    12    2
    22    12    13    1
    23    13    14    2
    24    14    15    1
    25    15    16    2
    26    16    17    1
    27    17    18    2
    28    18    19    1
    29     8     9   ar
    30     9    10   ar
    31    29    30   ar
    32    30    31   ar
    33    31    26   ar
    34    24    20   ar
    35    10     1   ar
    36     9     5   ar
    37    19    11    1
    38    18    14    1
@<TRIPOS>MOLECULE
*****
 33 38 0 0 0
SMALL
GASTEIGER

@<TRIPOS>ATOM
      1 C          63.7971   87.4066   14.3447 C.ar    1  UNL1        0.0212
      2 C          64.5505   86.3157   15.0460 C.ar    1  UNL1        0.0328
      3 C          64.6486   84.9534   14.4256 C.ar    1  UNL1        0.1610
      4 F          65.4021   83.8624   15.1271 F       1  UNL1       -0.2025
      5 C          63.9933   84.6823   13.1039 C.ar    1  UNL1        0.1494
      6 N          63.9201   83.4484   12.2542 N.ar    1  UNL1       -0.1262
      7 N          63.1215   83.7768   11.0278 N.ar    1  UNL1       -0.0598
      8 N          62.7010   85.2138   11.1194 N.ar    1  UNL1       -0.2140
      9 C          63.2398   85.7734   12.4025 C.ar    1  UNL1        0.1057
     10 C          63.1417   87.1356   13.0229 C.ar    1  UNL1        0.0224
     11 C          61.8850   85.9600   10.1058 C.2     1  UNL1        0.0681
     12 C          61.4496   85.2768    8.8435 C.2     1  UNL1        0.0153
     13 C          60.6336   86.0230    7.8298 C.2     1  UNL1        0.0041
     14 C          60.2531   87.4523    8.0786 C.2     1  UNL1        0.0367
     15 C          59.4615   88.4359    7.2686 C.2     1  UNL1        0.1233
     16 N          59.4077   89.7269    8.0304 N.2     1  UNL1       -0.1467
     17 N          60.1660   89.5413    9.3113 N.2     1  UNL1       -0.1519
     18 C          60.6885   88.1356    9.3411 C.2     1  UNL1        0.0880
     19 C          61.5045   87.3894   10.3547 C.3     1  UNL1        0.0934
     20 N          63.8367   90.0776   14.2451 N.ar    1  UNL1       -0.2464
     21 N          63.6687   91.1790   15.2495 N.ar    1  UNL1       -0.1674
     22 C          63.4271   90.5510   16.5901 C.ar    1  UNL1        0.1217
     23 C          63.4457   89.0615   16.4143 C.ar    1  UNL1        0.0412
     24 C          63.6989   88.7689   14.9650 C.ar    1  UNL1        0.0799
     25 C          64.0969   90.2539   12.7784 C.3     1  UNL1        0.1538
     26 C          65.9677   94.0570   11.2664 C.ar    1  UNL1        0.0684
     27 C          65.0928   93.2403   10.3620 C.ar    1  UNL1        0.0100
     28 C          64.4692   91.9726   10.8660 C.ar    1  UNL1       -0.0016
     29 C          64.7205   91.5216   12.2744 C.ar    1  UNL1        0.0021
     30 C          65.5953   92.3382   13.1787 C.ar    1  UNL1       -0.0016
     31 C          66.2189   93.6059   12.6747 C.ar    1  UNL1        0.0100
     32 N          67.2149   96.5924   10.2582 N.1     1  UNL1       -0.1908
     33 C          66.5913   95.3246   10.7623 C.1     1  UNL1        0.1004
@<TRIPOS>BOND
     1    32    33    3
     2    33    26    1
     3    26    27   ar
     4    27    28   ar
     5    28    29   ar
     6    29    25    1
     7    25    20    1
     8    20    21   ar
     9    21    22   ar
    10    22    23   ar
    11    23    24   ar
    12    24     1    1
    13     1     2   ar
    14     2     3   ar
    15     3     4    1
    16     3     5   ar
    17     5     6   ar
    18     6     7   ar
    19     7     8   ar
    20     8    11    1
    21    11    12    2
    22    12    13    1
    23    13    14    2
    24    14    15    1
    25    15    16    2
    26    16    17    1
    27    17    18    2
    28    18    19    1
    29     8     9   ar
    30     9    10   ar
    31    29    30   ar
    32    30    31   ar
    33    31    26   ar
    34    24    20   ar
    35    10     1   ar
    36     9     5   ar
    37    19    11    1
    38    18    14    1
@<TRIPOS>MOLECULE
*****
 33 38 0 0 0
SMALL
GASTEIGER

@<TRIPOS>ATOM
      1 C          62.9214   84.1412   12.2808 C.ar    1  UNL1        0.0212
      2 C          62.5160   82.8333   12.8931 C.ar    1  UNL1        0.0328
      3 C          62.3709   82.7148   14.3814 C.ar    1  UNL1        0.1610
      4 F          61.9655   81.4068   14.9936 F       1  UNL1       -0.2025
      5 C          62.6312   83.9043   15.2573 C.ar    1  UNL1        0.1494
      6 N          62.5692   84.0882   16.7447 N.ar    1  UNL1       -0.1262
      7 N          62.9363   85.5099   17.0516 N.ar    1  UNL1       -0.0598
      8 N          63.2252   86.2046   15.7540 N.ar    1  UNL1       -0.2140
      9 C          63.0366   85.2123   14.6450 C.ar    1  UNL1        0.1057
     10 C          63.1817   85.3307   13.1567 C.ar    1  UNL1        0.0224
     11 C          63.6313   87.6396   15.5935 C.2     1  UNL1        0.0681
     12 C          64.5061   88.0476   14.4453 C.2     1  UNL1        0.0153
     13 C          64.9122   89.4827   14.2848 C.2     1  UNL1        0.0041
     14 C          64.4435   90.5097   15.2724 C.2     1  UNL1        0.0367
     15 C          64.6795   91.9877   15.3718 C.2     1  UNL1        0.1233
     16 N          63.9505   92.4932   16.5813 N.2     1  UNL1       -0.1467
     17 N          63.2639   91.3275   17.2295 N.2     1  UNL1       -0.1519
     18 C          63.5687   90.1017   16.4206 C.2     1  UNL1        0.0880
     19 C          63.1625   88.6667   16.5811 C.3     1  UNL1        0.0934
     20 N          62.3123   85.2057    9.9056 N.ar    1  UNL1       -0.2464
     21 N          62.7710   84.9836    8.4948 N.ar    1  UNL1       -0.1674
     22 C          63.8085   83.9005    8.5098 C.ar    1  UNL1        0.1217
     23 C          63.9912   83.4531    9.9298 C.ar    1  UNL1        0.0412
     24 C          63.0664   84.2598   10.7925 C.ar    1  UNL1        0.0799
     25 C          61.2807   86.1992   10.3513 C.3     1  UNL1        0.1538
     26 C          59.4118   88.9964    7.3625 C.ar    1  UNL1        0.0684
     27 C          59.1644   87.5201    7.2648 C.ar    1  UNL1        0.0100
     28 C          59.7874   86.5877    8.2611 C.ar    1  UNL1       -0.0016
     29 C          60.6577   87.1316    9.3550 C.ar    1  UNL1        0.0021
     30 C          60.9051   88.6078    9.4527 C.ar    1  UNL1       -0.0016
     31 C          60.2822   89.5402    8.4564 C.ar    1  UNL1        0.0100
     32 N          58.1658   90.8609    5.3698 N.1     1  UNL1       -0.1908
     33 C          58.7888   89.9287    6.3662 C.1     1  UNL1        0.1004
@<TRIPOS>BOND
     1    32    33    3
     2    33    26    1
     3    26    27   ar
     4    27    28   ar
     5    28    29   ar
     6    29    25    1
     7    25    20    1
     8    20    21   ar
     9    21    22   ar
    10    22    23   ar
    11    23    24   ar
    12    24     1    1
    13     1     2   ar
    14     2     3   ar
    15     3     4    1
    16     3     5   ar
    17     5     6   ar
    18     6     7   ar
    19     7     8   ar
    20     8    11    1
    21    11    12    2
    22    12    13    1
    23    13    14    2
    24    14    15    1
    25    15    16    2
    26    16    17    1
    27    17    18    2
    28    18    19    1
    29     8     9   ar
    30     9    10   ar
    31    29    30   ar
    32    30    31   ar
    33    31    26   ar
    34    24    20   ar
    35    10     1   ar
    36     9     5   ar
    37    19    11    1
    38    18    14    1
@<TRIPOS>MOLECULE
*****
 33 38 0 0 0
SMALL
GASTEIGER

@<TRIPOS>ATOM
      1 C          63.2393   85.2464   12.7846 C.ar    1  UNL1        0.0212
      2 C          62.8677   84.3125   13.8978 C.ar    1  UNL1        0.0328
      3 C          62.8601   84.8013   15.3160 C.ar    1  UNL1        0.1610
      4 F          62.4884   83.8672   16.4293 F       1  UNL1       -0.2025
      5 C          63.2243   86.2242   15.6207 C.ar    1  UNL1        0.1494
      6 N          63.3052   86.9852   16.9108 N.ar    1  UNL1       -0.1262
      7 N          63.7269   88.3896   16.5947 N.ar    1  UNL1       -0.0598
      8 N          63.9066   88.4965   15.1093 N.ar    1  UNL1       -0.2140
      9 C          63.5959   87.1581   14.5074 C.ar    1  UNL1        0.1057
     10 C          63.6034   86.6693   13.0893 C.ar    1  UNL1        0.0224
     11 C          64.3237   89.7258   14.3579 C.2     1  UNL1        0.0681
     12 C          63.6077   90.1138   13.0982 C.2     1  UNL1        0.0153
     13 C          64.0248   91.3432   12.3467 C.2     1  UNL1        0.0041
     14 C          65.1578   92.1846   12.8549 C.2     1  UNL1        0.0367
     15 C          65.7877   93.4416   12.3321 C.2     1  UNL1        0.1233
     16 N          66.8930   93.8304   13.2687 N.2     1  UNL1       -0.1467
     17 N          66.9461   92.8137   14.3704 N.2     1  UNL1       -0.1519
     18 C          65.8737   91.7965   14.1147 C.2     1  UNL1        0.0880
     19 C          65.4567   90.5672   14.8661 C.3     1  UNL1        0.0934
     20 N          62.1984   85.0389   10.3313 N.ar    1  UNL1       -0.2464
     21 N          62.6078   84.3568    9.0596 N.ar    1  UNL1       -0.1674
     22 C          63.9093   83.6539    9.3088 C.ar    1  UNL1        0.1217
     23 C          64.3042   83.9016   10.7345 C.ar    1  UNL1        0.0412
     24 C          63.2468   84.7576   11.3664 C.ar    1  UNL1        0.0799
     25 C          60.9583   85.8585   10.5324 C.3     1  UNL1        0.1538
     26 C          59.6888   88.8254    7.3962 C.ar    1  UNL1        0.0684
     27 C          59.4262   87.3623    7.1946 C.ar    1  UNL1        0.0100
     28 C          59.8493   86.3733    8.2400 C.ar    1  UNL1       -0.0016
     29 C          60.5351   86.8475    9.4870 C.ar    1  UNL1        0.0021
     30 C          60.7978   88.3105    9.6885 C.ar    1  UNL1       -0.0016
     31 C          60.3746   89.2994    8.6431 C.ar    1  UNL1        0.0100
     32 N          58.8424   90.8032    5.3053 N.1     1  UNL1       -0.1908
     33 C          59.2656   89.8143    6.3507 C.1     1  UNL1        0.1004
@<TRIPOS>BOND
     1    32    33    3
     2    33    26    1
     3    26    27   ar
     4    27    28   ar
     5    28    29   ar
     6    29    25    1
     7    25    20    1
     8    20    21   ar
     9    21    22   ar
    10    22    23   ar
    11    23    24   ar
    12    24     1    1
    13     1     2   ar
    14     2     3   ar
    15     3     4    1
    16     3     5   ar
    17     5     6   ar
    18     6     7   ar
    19     7     8   ar
    20     8    11    1
    21    11    12    2
    22    12    13    1
    23    13    14    2
    24    14    15    1
    25    15    16    2
    26    16    17    1
    27    17    18    2
    28    18    19    1
    29     8     9   ar
    30     9    10   ar
    31    29    30   ar
    32    30    31   ar
    33    31    26   ar
    34    24    20   ar
    35    10     1   ar
    36     9     5   ar
    37    19    11    1
    38    18    14    1
