@<TRIPOS>MOLECULE
*****
 26 28 0 0 0
SMALL
GASTEIGER

@<TRIPOS>ATOM
      1 C          63.2266   89.6990   16.8140 C.3     1  UNL1        0.0522
      2 C          63.6527   90.1490   15.4480 C.ar    1  UNL1        0.0625
      3 C          64.7027   91.2100   15.3015 C.ar    1  UNL1        0.0522
      4 C          65.1288   91.6599   13.9355 C.ar    1  UNL1        0.1483
      5 C          64.5049   91.0488   12.7160 C.ar    1  UNL1        0.0612
      6 C          63.4548   89.9878   12.8625 C.ar    1  UNL1        0.1374
      7 N          63.0287   89.5378   14.2286 N.ar    1  UNL1       -0.2449
      8 C          62.8308   89.3766   11.6430 C.2     1  UNL1        0.2684
      9 O          62.7803   90.1501   10.3588 O.2     1  UNL1       -0.2681
     10 N          62.2574   87.9921   11.7078 N.am    1  UNL1       -0.2646
     11 H          62.2906   87.4845   12.5506 H       1  UNL1        0.1566
     12 C          61.6334   87.3809   10.4882 C.ar    1  UNL1        0.1346
     13 C          62.4105   86.4023    9.6585 C.ar    1  UNL1        0.0368
     14 C          61.7865   85.7912    8.4391 C.ar    1  UNL1        0.0341
     15 C          60.3854   86.1587    8.0493 C.ar    1  UNL1        0.1593
     16 F          59.7614   85.5475    6.8298 F       1  UNL1       -0.2025
     17 C          59.6083   87.1373    8.8790 C.ar    1  UNL1        0.1298
     18 N          60.2323   87.7484   10.0985 N.ar    1  UNL1       -0.2267
     19 O          66.1789   92.7211   13.7890 O.3     1  UNL1       -0.4502
     20 C          66.5262   93.2498   12.4290 C.ar    1  UNL1        0.1834
     21 C          66.0923   94.6283   12.0269 C.ar    1  UNL1        0.1392
     22 N          66.4395   95.1571   10.6668 N.ar    1  UNL1       -0.2259
     23 C          67.2208   94.3074    9.7088 C.ar    1  UNL1        0.1399
     24 C          67.5681   94.8361    8.3487 C.3     1  UNL1        0.0737
     25 N          67.6547   92.9290   10.1109 N.ar    1  UNL1       -0.2259
     26 C          67.3074   92.4002   11.4709 C.ar    1  UNL1        0.1392
@<TRIPOS>BOND
     1     1     2    1
     2     2     3   ar
     3     3     4   ar
     4     4    19    1
     5    19    20    1
     6    20    21   ar
     7    21    22   ar
     8    22    23   ar
     9    23    24    1
    10    23    25   ar
    11    25    26   ar
    12     4     5   ar
    13     5     6   ar
    14     6     8    1
    15     8     9    2
    16     8    10   am
    17    10    12    1
    18    12    13   ar
    19    13    14   ar
    20    14    15   ar
    21    15    16    1
    22    15    17   ar
    23    17    18   ar
    24     6     7   ar
    25     7     2   ar
    26    26    20   ar
    27    18    12   ar
    28    10    11    1
@<TRIPOS>MOLECULE
*****
 26 28 0 0 0
SMALL
GASTEIGER

@<TRIPOS>ATOM
      1 C          62.7953   80.4309   12.6274 C.3     1  UNL1        0.0522
      2 C          62.9020   81.9213   12.7585 C.ar    1  UNL1        0.0625
      3 C          63.4622   82.5258   14.0117 C.ar    1  UNL1        0.0522
      4 C          63.5688   84.0163   14.1428 C.ar    1  UNL1        0.1483
      5 C          63.1154   84.9022   13.0206 C.ar    1  UNL1        0.0612
      6 C          62.5552   84.2977   11.7673 C.ar    1  UNL1        0.1374
      7 N          62.4485   82.8073   11.6362 N.ar    1  UNL1       -0.2449
      8 C          62.1017   85.1837   10.6450 C.2     1  UNL1        0.2684
      9 O          62.7952   85.1253    9.3162 O.2     1  UNL1       -0.2681
     10 N          60.9547   86.1280   10.8515 N.am    1  UNL1       -0.2646
     11 H          60.4995   86.1663   11.7236 H       1  UNL1        0.1566
     12 C          60.5012   87.0139    9.7292 C.ar    1  UNL1        0.1346
     13 C          60.7425   88.4928    9.7967 C.ar    1  UNL1        0.0368
     14 C          60.2889   89.3787    8.6744 C.ar    1  UNL1        0.0341
     15 C          59.5942   88.7856    7.4847 C.ar    1  UNL1        0.1593
     16 F          59.1406   89.6716    6.3624 F       1  UNL1       -0.2025
     17 C          59.3529   87.3067    7.4171 C.ar    1  UNL1        0.1298
     18 N          59.8064   86.4209    8.5394 N.ar    1  UNL1       -0.2267
     19 O          64.1290   84.6208   15.3962 O.3     1  UNL1       -0.4502
     20 C          63.9207   86.0781   15.6840 C.ar    1  UNL1        0.1834
     21 C          63.1355   86.4995   16.8907 C.ar    1  UNL1        0.1392
     22 N          62.9272   87.9568   17.1785 N.ar    1  UNL1       -0.2259
     23 C          63.5040   88.9927   16.2597 C.ar    1  UNL1        0.1399
     24 C          63.2957   90.4500   16.5475 C.3     1  UNL1        0.0737
     25 N          64.2892   88.5713   15.0531 N.ar    1  UNL1       -0.2259
     26 C          64.4975   87.1140   14.7653 C.ar    1  UNL1        0.1392
@<TRIPOS>BOND
     1     1     2    1
     2     2     3   ar
     3     3     4   ar
     4     4    19    1
     5    19    20    1
     6    20    21   ar
     7    21    22   ar
     8    22    23   ar
     9    23    24    1
    10    23    25   ar
    11    25    26   ar
    12     4     5   ar
    13     5     6   ar
    14     6     8    1
    15     8     9    2
    16     8    10   am
    17    10    12    1
    18    12    13   ar
    19    13    14   ar
    20    14    15   ar
    21    15    16    1
    22    15    17   ar
    23    17    18   ar
    24     6     7   ar
    25     7     2   ar
    26    26    20   ar
    27    18    12   ar
    28    10    11    1
@<TRIPOS>MOLECULE
*****
 26 28 0 0 0
SMALL
GASTEIGER

@<TRIPOS>ATOM
      1 C          58.8169   90.8445   11.6390 C.3     1  UNL1        0.0522
      2 C          60.1410   90.2021   11.3488 C.ar    1  UNL1        0.0625
      3 C          61.3287   91.0526   11.0084 C.ar    1  UNL1        0.0522
      4 C          62.6527   90.4102   10.7182 C.ar    1  UNL1        0.1483
      5 C          62.7891   88.9173   10.7685 C.ar    1  UNL1        0.0612
      6 C          61.6014   88.0668   11.1089 C.ar    1  UNL1        0.1374
      7 N          60.2773   88.7092   11.3991 N.ar    1  UNL1       -0.2449
      8 C          61.7377   86.5738   11.1592 C.2     1  UNL1        0.2684
      9 O          61.0536   85.7232   10.1304 O.2     1  UNL1       -0.2681
     10 N          62.5581   85.9315   12.2383 N.am    1  UNL1       -0.2646
     11 H          63.0070   86.4899   12.9136 H       1  UNL1        0.1566
     12 C          62.6944   84.4385   12.2886 C.ar    1  UNL1        0.1346
     13 C          63.2509   83.6961   11.1101 C.ar    1  UNL1        0.0368
     14 C          63.3872   82.2032   11.1604 C.ar    1  UNL1        0.0341
     15 C          62.9670   81.4527   12.3893 C.ar    1  UNL1        0.1593
     16 F          63.1033   79.9597   12.4396 F       1  UNL1       -0.2025
     17 C          62.4105   82.1952   13.5679 C.ar    1  UNL1        0.1298
     18 N          62.2742   83.6881   13.5175 N.ar    1  UNL1       -0.2267
     19 O          63.8405   91.2609   10.3778 O.3     1  UNL1       -0.4502
     20 C          64.6793   91.8503   11.4727 C.ar    1  UNL1        0.1834
     21 C          64.3985   91.4999   12.9039 C.ar    1  UNL1        0.1392
     22 N          65.2374   92.0894   13.9988 N.ar    1  UNL1       -0.2259
     23 C          66.3570   93.0293   13.6625 C.ar    1  UNL1        0.1399
     24 C          67.1959   93.6188   14.7574 C.3     1  UNL1        0.0737
     25 N          66.6377   93.3797   12.2313 N.ar    1  UNL1       -0.2259
     26 C          65.7989   92.7902   11.1364 C.ar    1  UNL1        0.1392
@<TRIPOS>BOND
     1     1     2    1
     2     2     3   ar
     3     3     4   ar
     4     4    19    1
     5    19    20    1
     6    20    21   ar
     7    21    22   ar
     8    22    23   ar
     9    23    24    1
    10    23    25   ar
    11    25    26   ar
    12     4     5   ar
    13     5     6   ar
    14     6     8    1
    15     8     9    2
    16     8    10   am
    17    10    12    1
    18    12    13   ar
    19    13    14   ar
    20    14    15   ar
    21    15    16    1
    22    15    17   ar
    23    17    18   ar
    24     6     7   ar
    25     7     2   ar
    26    26    20   ar
    27    18    12   ar
    28    10    11    1
@<TRIPOS>MOLECULE
*****
 26 28 0 0 0
SMALL
GASTEIGER

@<TRIPOS>ATOM
      1 C          59.2446   90.1972   11.5552 C.3     1  UNL1        0.0522
      2 C          60.5481   89.4634   11.6668 C.ar    1  UNL1        0.0625
      3 C          60.7404   88.1621   10.9460 C.ar    1  UNL1        0.0522
      4 C          62.0439   87.4284   11.0576 C.ar    1  UNL1        0.1483
      5 C          63.1551   87.9960   11.8900 C.ar    1  UNL1        0.0612
      6 C          62.9629   89.2973   12.6108 C.ar    1  UNL1        0.1374
      7 N          61.6594   90.0310   12.4992 N.ar    1  UNL1       -0.2449
      8 C          64.0742   89.8649   13.4432 C.2     1  UNL1        0.2684
      9 O          64.6158   89.0843   14.6040 O.2     1  UNL1       -0.2681
     10 N          64.6438   91.2131   13.1149 N.am    1  UNL1       -0.2646
     11 H          64.2884   91.7254   12.3530 H       1  UNL1        0.1566
     12 C          65.7551   91.7808   13.9473 C.ar    1  UNL1        0.1346
     13 C          67.1481   91.8458   13.3948 C.ar    1  UNL1        0.0368
     14 C          68.2593   92.4135   14.2272 C.ar    1  UNL1        0.0341
     15 C          67.9775   92.9160   15.6121 C.ar    1  UNL1        0.1593
     16 F          69.0888   93.4837   16.4446 F       1  UNL1       -0.2025
     17 C          66.5845   92.8510   16.1646 C.ar    1  UNL1        0.1298
     18 N          65.4733   92.2834   15.3322 N.ar    1  UNL1       -0.2267
     19 O          62.2361   86.1270   10.3368 O.3     1  UNL1       -0.4502
     20 C          62.6329   84.8983   11.1002 C.ar    1  UNL1        0.1834
     21 C          62.3085   84.7852   12.5604 C.ar    1  UNL1        0.1392
     22 N          62.7053   83.5565   13.3239 N.ar    1  UNL1       -0.2259
     23 C          63.4264   82.4408   12.6271 C.ar    1  UNL1        0.1399
     24 C          63.8231   81.2121   13.3905 C.3     1  UNL1        0.0737
     25 N          63.7507   82.5539   11.1670 N.ar    1  UNL1       -0.2259
     26 C          63.3539   83.7827   10.4035 C.ar    1  UNL1        0.1392
@<TRIPOS>BOND
     1     1     2    1
     2     2     3   ar
     3     3     4   ar
     4     4    19    1
     5    19    20    1
     6    20    21   ar
     7    21    22   ar
     8    22    23   ar
     9    23    24    1
    10    23    25   ar
    11    25    26   ar
    12     4     5   ar
    13     5     6   ar
    14     6     8    1
    15     8     9    2
    16     8    10   am
    17    10    12    1
    18    12    13   ar
    19    13    14   ar
    20    14    15   ar
    21    15    16    1
    22    15    17   ar
    23    17    18   ar
    24     6     7   ar
    25     7     2   ar
    26    26    20   ar
    27    18    12   ar
    28    10    11    1
@<TRIPOS>MOLECULE
*****
 26 28 0 0 0
SMALL
GASTEIGER

@<TRIPOS>ATOM
      1 C          62.7238   87.4892   18.6262 C.3     1  UNL1        0.0522
      2 C          63.1205   87.6398   17.1875 C.ar    1  UNL1        0.0625
      3 C          63.3277   89.0068   16.6058 C.ar    1  UNL1        0.0522
      4 C          63.7244   89.1574   15.1671 C.ar    1  UNL1        0.1483
      5 C          63.9138   87.9411   14.3100 C.ar    1  UNL1        0.0612
      6 C          63.7065   86.5741   14.8917 C.ar    1  UNL1        0.1374
      7 N          63.3099   86.4235   16.3304 N.ar    1  UNL1       -0.2449
      8 C          63.8959   85.3577   14.0346 C.2     1  UNL1        0.2684
      9 O          65.1998   84.6168   14.0616 O.2     1  UNL1       -0.2681
     10 N          62.7813   84.8822   13.1505 N.am    1  UNL1       -0.2646
     11 H          61.9255   85.3685   13.1327 H       1  UNL1        0.1566
     12 C          62.9707   83.6658   12.2934 C.ar    1  UNL1        0.1346
     13 C          63.6651   83.7822   10.9689 C.ar    1  UNL1        0.0368
     14 C          63.8545   82.5659   10.1119 C.ar    1  UNL1        0.0341
     15 C          63.3494   81.2330   10.5794 C.ar    1  UNL1        0.1593
     16 F          63.5388   80.0166    9.7223 F       1  UNL1       -0.2025
     17 C          62.6550   81.1166   11.9038 C.ar    1  UNL1        0.1298
     18 N          62.4656   82.3330   12.7608 N.ar    1  UNL1       -0.2267
     19 O          63.9317   90.5245   14.5854 O.3     1  UNL1       -0.4502
     20 C          65.1699   91.3021   14.9202 C.ar    1  UNL1        0.1834
     21 C          66.3440   91.2813   13.9869 C.ar    1  UNL1        0.1392
     22 N          67.5822   92.0589   14.3217 N.ar    1  UNL1       -0.2259
     23 C          67.6463   92.8575   15.5899 C.ar    1  UNL1        0.1399
     24 C          68.8845   93.6351   15.9247 C.3     1  UNL1        0.0737
     25 N          66.4722   92.8783   16.5232 N.ar    1  UNL1       -0.2259
     26 C          65.2340   92.1007   16.1884 C.ar    1  UNL1        0.1392
@<TRIPOS>BOND
     1     1     2    1
     2     2     3   ar
     3     3     4   ar
     4     4    19    1
     5    19    20    1
     6    20    21   ar
     7    21    22   ar
     8    22    23   ar
     9    23    24    1
    10    23    25   ar
    11    25    26   ar
    12     4     5   ar
    13     5     6   ar
    14     6     8    1
    15     8     9    2
    16     8    10   am
    17    10    12    1
    18    12    13   ar
    19    13    14   ar
    20    14    15   ar
    21    15    16    1
    22    15    17   ar
    23    17    18   ar
    24     6     7   ar
    25     7     2   ar
    26    26    20   ar
    27    18    12   ar
    28    10    11    1
@<TRIPOS>MOLECULE
*****
 26 28 0 0 0
SMALL
GASTEIGER

@<TRIPOS>ATOM
      1 C          62.6689   90.6853   10.1343 C.3     1  UNL1        0.0522
      2 C          63.0672   90.1330   11.4708 C.ar    1  UNL1        0.0625
      3 C          63.4457   91.0639   12.5844 C.ar    1  UNL1        0.0522
      4 C          63.8440   90.5116   13.9209 C.ar    1  UNL1        0.1483
      5 C          63.8637   89.0285   14.1439 C.ar    1  UNL1        0.0612
      6 C          63.4851   88.0976   13.0303 C.ar    1  UNL1        0.1374
      7 N          63.0869   88.6499   11.6938 N.ar    1  UNL1       -0.2449
      8 C          63.5048   86.6143   13.2533 C.2     1  UNL1        0.2684
      9 O          64.3557   86.0308   14.3421 O.2     1  UNL1       -0.2681
     10 N          62.6737   85.7146   12.3874 N.am    1  UNL1       -0.2646
     11 H          62.1153   86.0976   11.6727 H       1  UNL1        0.1566
     12 C          62.6934   84.2314   12.6103 C.ar    1  UNL1        0.1346
     13 C          63.0438   83.3079   11.4815 C.ar    1  UNL1        0.0368
     14 C          63.0635   81.8247   11.7045 C.ar    1  UNL1        0.0341
     15 C          62.7328   81.2650   13.0563 C.ar    1  UNL1        0.1593
     16 F          62.7525   79.7818   13.2792 F       1  UNL1       -0.2025
     17 C          62.3824   82.1885   14.1851 C.ar    1  UNL1        0.1298
     18 N          62.3627   83.6717   13.9622 N.ar    1  UNL1       -0.2267
     19 O          64.2226   91.4426   15.0345 O.3     1  UNL1       -0.4502
     20 C          65.6265   91.9614   15.1338 C.ar    1  UNL1        0.1834
     21 C          66.5924   91.7311   14.0094 C.ar    1  UNL1        0.1392
     22 N          67.9963   92.2499   14.1087 N.ar    1  UNL1       -0.2259
     23 C          68.4343   92.9991   15.3322 C.ar    1  UNL1        0.1399
     24 C          69.8382   93.5179   15.4314 C.3     1  UNL1        0.0737
     25 N          67.4684   93.2294   16.4564 N.ar    1  UNL1       -0.2259
     26 C          66.0645   92.7106   16.3572 C.ar    1  UNL1        0.1392
@<TRIPOS>BOND
     1     1     2    1
     2     2     3   ar
     3     3     4   ar
     4     4    19    1
     5    19    20    1
     6    20    21   ar
     7    21    22   ar
     8    22    23   ar
     9    23    24    1
    10    23    25   ar
    11    25    26   ar
    12     4     5   ar
    13     5     6   ar
    14     6     8    1
    15     8     9    2
    16     8    10   am
    17    10    12    1
    18    12    13   ar
    19    13    14   ar
    20    14    15   ar
    21    15    16    1
    22    15    17   ar
    23    17    18   ar
    24     6     7   ar
    25     7     2   ar
    26    26    20   ar
    27    18    12   ar
    28    10    11    1
@<TRIPOS>MOLECULE
*****
 26 28 0 0 0
SMALL
GASTEIGER

@<TRIPOS>ATOM
      1 C          62.3452   86.9425   18.3064 C.3     1  UNL1        0.0522
      2 C          63.1173   87.1453   17.0364 C.ar    1  UNL1        0.0625
      3 C          63.6836   85.9638   16.3061 C.ar    1  UNL1        0.0522
      4 C          64.4556   86.1666   15.0362 C.ar    1  UNL1        0.1483
      5 C          64.6614   87.5509   14.4965 C.ar    1  UNL1        0.0612
      6 C          64.0951   88.7324   15.2267 C.ar    1  UNL1        0.1374
      7 N          63.3230   88.5296   16.4967 N.ar    1  UNL1       -0.2449
      8 C          64.3008   90.1168   14.6870 C.2     1  UNL1        0.2684
      9 O          63.3115   91.1993   15.0022 O.2     1  UNL1       -0.2681
     10 N          65.4958   90.4186   13.8321 N.am    1  UNL1       -0.2646
     11 H          66.1451   89.7080   13.6253 H       1  UNL1        0.1566
     12 C          65.7015   91.8029   13.2924 C.ar    1  UNL1        0.1346
     13 C          65.2861   92.1301   11.8888 C.ar    1  UNL1        0.0368
     14 C          65.4918   93.5144   11.3491 C.ar    1  UNL1        0.0341
     15 C          66.1130   94.5716   12.2132 C.ar    1  UNL1        0.1593
     16 F          66.3188   95.9560   11.6735 F       1  UNL1       -0.2025
     17 C          66.5285   94.2444   13.6168 C.ar    1  UNL1        0.1298
     18 N          66.3227   92.8601   14.1565 N.ar    1  UNL1       -0.2267
     19 O          65.0219   84.9850   14.3059 O.3     1  UNL1       -0.4502
     20 C          64.1797   83.7627   14.0899 C.ar    1  UNL1        0.1834
     21 C          64.3200   82.9691   12.8247 C.ar    1  UNL1        0.1392
     22 N          63.4778   81.7469   12.6087 N.ar    1  UNL1       -0.2259
     23 C          62.4951   81.3182   13.6579 C.ar    1  UNL1        0.1399
     24 C          61.6529   80.0959   13.4419 C.3     1  UNL1        0.0737
     25 N          62.3548   82.1117   14.9230 N.ar    1  UNL1       -0.2259
     26 C          63.1971   83.3340   15.1390 C.ar    1  UNL1        0.1392
@<TRIPOS>BOND
     1     1     2    1
     2     2     3   ar
     3     3     4   ar
     4     4    19    1
     5    19    20    1
     6    20    21   ar
     7    21    22   ar
     8    22    23   ar
     9    23    24    1
    10    23    25   ar
    11    25    26   ar
    12     4     5   ar
    13     5     6   ar
    14     6     8    1
    15     8     9    2
    16     8    10   am
    17    10    12    1
    18    12    13   ar
    19    13    14   ar
    20    14    15   ar
    21    15    16    1
    22    15    17   ar
    23    17    18   ar
    24     6     7   ar
    25     7     2   ar
    26    26    20   ar
    27    18    12   ar
    28    10    11    1
@<TRIPOS>MOLECULE
*****
 26 28 0 0 0
SMALL
GASTEIGER

@<TRIPOS>ATOM
      1 C          60.6698   90.4548   10.4252 C.3     1  UNL1        0.0522
      2 C          61.8184   90.1390   11.3369 C.ar    1  UNL1        0.0625
      3 C          62.7375   91.2336   11.7919 C.ar    1  UNL1        0.0522
      4 C          63.8861   90.9178   12.7036 C.ar    1  UNL1        0.1483
      5 C          64.1155   89.5076   13.1602 C.ar    1  UNL1        0.0612
      6 C          63.1963   88.4131   12.7052 C.ar    1  UNL1        0.1374
      7 N          62.0478   88.7288   11.7935 N.ar    1  UNL1       -0.2449
      8 C          63.4257   87.0028   13.1618 C.2     1  UNL1        0.2684
      9 O          64.2037   86.7379   14.4166 O.2     1  UNL1       -0.2681
     10 N          62.8770   85.8574   12.3637 N.am    1  UNL1       -0.2646
     11 H          62.3664   86.0313   11.5401 H       1  UNL1        0.1566
     12 C          63.1064   84.4471   12.8203 C.ar    1  UNL1        0.1346
     13 C          64.0312   83.5508   12.0514 C.ar    1  UNL1        0.0368
     14 C          64.2605   82.1405   12.5080 C.ar    1  UNL1        0.0341
     15 C          63.5650   81.6266   13.7336 C.ar    1  UNL1        0.1593
     16 F          63.7943   80.2162   14.1903 F       1  UNL1       -0.2025
     17 C          62.6401   82.5229   14.5026 C.ar    1  UNL1        0.1298
     18 N          62.4108   83.9331   14.0459 N.ar    1  UNL1       -0.2267
     19 O          64.8053   92.0125   13.1586 O.3     1  UNL1       -0.4502
     20 C          65.5263   92.8547   12.1483 C.ar    1  UNL1        0.1834
     21 C          65.6926   92.3608   10.7417 C.ar    1  UNL1        0.1392
     22 N          66.4137   93.2030    9.7314 N.ar    1  UNL1       -0.2259
     23 C          66.9684   94.5392   10.1277 C.ar    1  UNL1        0.1399
     24 C          67.6895   95.3815    9.1174 C.3     1  UNL1        0.0737
     25 N          66.8021   95.0331   11.5343 N.ar    1  UNL1       -0.2259
     26 C          66.0811   94.1908   12.5446 C.ar    1  UNL1        0.1392
@<TRIPOS>BOND
     1     1     2    1
     2     2     3   ar
     3     3     4   ar
     4     4    19    1
     5    19    20    1
     6    20    21   ar
     7    21    22   ar
     8    22    23   ar
     9    23    24    1
    10    23    25   ar
    11    25    26   ar
    12     4     5   ar
    13     5     6   ar
    14     6     8    1
    15     8     9    2
    16     8    10   am
    17    10    12    1
    18    12    13   ar
    19    13    14   ar
    20    14    15   ar
    21    15    16    1
    22    15    17   ar
    23    17    18   ar
    24     6     7   ar
    25     7     2   ar
    26    26    20   ar
    27    18    12   ar
    28    10    11    1
@<TRIPOS>MOLECULE
*****
 26 28 0 0 0
SMALL
GASTEIGER

@<TRIPOS>ATOM
      1 C          59.1255   88.3678    7.6828 C.3     1  UNL1        0.0522
      2 C          60.2899   87.9866    8.5482 C.ar    1  UNL1        0.0625
      3 C          60.9949   86.6816    8.3247 C.ar    1  UNL1        0.0522
      4 C          62.1593   86.3004    9.1901 C.ar    1  UNL1        0.1483
      5 C          62.6186   87.2240   10.2790 C.ar    1  UNL1        0.0612
      6 C          61.9135   88.5289   10.5026 C.ar    1  UNL1        0.1374
      7 N          60.7492   88.9102    9.6372 N.ar    1  UNL1       -0.2449
      8 C          62.3728   89.4527   11.5916 C.2     1  UNL1        0.2684
      9 O          62.0132   90.9081   11.5417 O.2     1  UNL1       -0.2681
     10 N          63.1916   88.9210   12.7303 N.am    1  UNL1       -0.2646
     11 H          63.4276   87.9658   12.7630 H       1  UNL1        0.1566
     12 C          63.6509   89.8448   13.8193 C.ar    1  UNL1        0.1346
     13 C          64.8097   90.7669   13.5814 C.ar    1  UNL1        0.0368
     14 C          65.2689   91.6906   14.6704 C.ar    1  UNL1        0.0341
     15 C          64.5693   91.6921   15.9973 C.ar    1  UNL1        0.1593
     16 F          65.0286   92.6158   17.0863 F       1  UNL1       -0.2025
     17 C          63.4105   90.7699   16.2352 C.ar    1  UNL1        0.1298
     18 N          62.9513   89.8462   15.1462 N.ar    1  UNL1       -0.2267
     19 O          62.8643   84.9953    8.9665 O.3     1  UNL1       -0.4502
     20 C          63.1645   84.0963   10.1291 C.ar    1  UNL1        0.1834
     21 C          64.2971   83.1162   10.0464 C.ar    1  UNL1        0.1392
     22 N          64.5973   82.2171   11.2090 N.ar    1  UNL1       -0.2259
     23 C          63.7648   82.2982   12.4543 C.ar    1  UNL1        0.1399
     24 C          64.0650   81.3991   13.6168 C.3     1  UNL1        0.0737
     25 N          62.6323   83.2782   12.5369 N.ar    1  UNL1       -0.2259
     26 C          62.3321   84.1772   11.3743 C.ar    1  UNL1        0.1392
@<TRIPOS>BOND
     1     1     2    1
     2     2     3   ar
     3     3     4   ar
     4     4    19    1
     5    19    20    1
     6    20    21   ar
     7    21    22   ar
     8    22    23   ar
     9    23    24    1
    10    23    25   ar
    11    25    26   ar
    12     4     5   ar
    13     5     6   ar
    14     6     8    1
    15     8     9    2
    16     8    10   am
    17    10    12    1
    18    12    13   ar
    19    13    14   ar
    20    14    15   ar
    21    15    16    1
    22    15    17   ar
    23    17    18   ar
    24     6     7   ar
    25     7     2   ar
    26    26    20   ar
    27    18    12   ar
    28    10    11    1
