@<TRIPOS>MOLECULE
*****
 44 48 0 0 0
SMALL
GASTEIGER

@<TRIPOS>ATOM
      1 C          61.6934   87.2691   10.0261 C.ar    1  UNL1        0.0611
      2 C          61.6026   85.7749    9.9284 C.ar    1  UNL1        0.0112
      3 C          62.1588   84.9164   11.0255 C.ar    1  UNL1        0.0208
      4 C          62.8056   85.5520   12.2204 C.ar    1  UNL1        0.1218
      5 N          62.8963   87.0461   12.3181 N.ar    1  UNL1       -0.2421
      6 C          62.3402   87.9046   11.2210 C.ar    1  UNL1        0.1068
      7 C          63.3618   84.6935   13.3175 C.3     1  UNL1        0.3254
      8 F          61.9470   84.2182   13.1664 F       1  UNL1       -0.1949
      9 F          64.6811   85.3975   13.1996 F       1  UNL1       -0.1949
     10 C          63.9179   83.8350   14.4146 C.3     1  UNL1        0.1932
     11 O          64.4740   82.9765   15.5117 O.3     1  UNL1       -0.3755
     12 H          64.8452   83.5412   16.2076 H       1  UNL1        0.2110
     13 C          63.5058   82.6052   13.6612 C.ar    1  UNL1        0.0368
     14 C          62.4798   81.6781   14.2424 C.ar    1  UNL1        0.0028
     15 C          62.0677   80.4483   13.4889 C.ar    1  UNL1        0.0295
     16 C          62.6816   80.1455   12.1542 C.ar    1  UNL1        0.1424
     17 F          62.2695   78.9157   11.4008 F       1  UNL1       -0.2041
     18 C          63.7076   81.0726   11.5730 C.ar    1  UNL1        0.0590
     19 C          64.1197   82.3024   12.3265 C.ar    1  UNL1        0.1408
     20 F          65.1457   83.2295   11.7452 F       1  UNL1       -0.2043
     21 C          64.3300   85.0648   15.1681 C.3     1  UNL1        0.1679
     22 N          63.3157   85.8325   15.9630 N.ar    1  UNL1       -0.2078
     23 C          63.4457   87.2558   16.4180 C.ar    1  UNL1        0.2216
     24 N          62.2036   87.6146   17.1787 N.ar    1  UNL1       -0.1048
     25 N          61.3059   86.4129   17.1938 N.ar    1  UNL1       -0.0226
     26 N          61.9932   85.3115   16.4424 N.ar    1  UNL1       -0.0428
     27 C          60.5811   88.9861    7.8319 C.1     1  UNL1       -0.0597
     28 C          61.1372   88.1276    8.9290 C.1     1  UNL1       -0.0582
     29 C          58.9127   91.5616    4.5405 C.ar    1  UNL1        0.1391
     30 C          57.9848   90.8661    5.4920 C.ar    1  UNL1        0.0375
     31 C          58.5409   90.0076    6.5892 C.ar    1  UNL1        0.0114
     32 C          60.0250   89.8446    6.7348 C.ar    1  UNL1        0.0422
     33 C          60.9528   90.5401    5.7833 C.ar    1  UNL1        0.0114
     34 C          60.3967   91.3986    4.6862 C.ar    1  UNL1        0.0375
     35 O          58.3566   92.4201    3.4434 O.3     1  UNL1       -0.4706
     36 C          59.0282   92.4521    2.1026 C.3     1  UNL1        0.2320
     37 C          62.6943   94.9869    1.4823 C.ar    1  UNL1        0.0684
     38 C          62.8156   93.4928    1.5346 C.ar    1  UNL1        0.0101
     39 C          61.5936   92.6478    1.7413 C.ar    1  UNL1       -0.0000
     40 C          60.2502   93.2970    1.8958 C.ar    1  UNL1        0.0212
     41 C          60.1289   94.7912    1.8436 C.ar    1  UNL1       -0.0000
     42 C          61.3509   95.6361    1.6368 C.ar    1  UNL1        0.0101
     43 N          65.1383   96.6768    1.0688 N.1     1  UNL1       -0.1908
     44 C          63.9163   95.8318    1.2756 C.1     1  UNL1        0.1004
@<TRIPOS>BOND
     1    43    44    3
     2    44    37    1
     3    37    38   ar
     4    38    39   ar
     5    39    40   ar
     6    40    36    1
     7    36    35    1
     8    35    29    1
     9    29    30   ar
    10    30    31   ar
    11    31    32   ar
    12    32    27    1
    13    27    28    3
    14    28     1    1
    15     1     2   ar
    16     2     3   ar
    17     3     4   ar
    18     4     7    1
    19     7     8    1
    20     7     9    1
    21     7    10    1
    22    10    11    1
    23    10    21    1
    24    21    22    1
    25    22    23   ar
    26    23    24   ar
    27    24    25   ar
    28    25    26   ar
    29    10    13    1
    30    13    14   ar
    31    14    15   ar
    32    15    16   ar
    33    16    17    1
    34    16    18   ar
    35    18    19   ar
    36    19    20    1
    37     4     5   ar
    38     5     6   ar
    39    32    33   ar
    40    33    34   ar
    41    40    41   ar
    42    41    42   ar
    43    42    37   ar
    44    34    29   ar
    45     6     1   ar
    46    26    22   ar
    47    19    13   ar
    48    11    12    1
@<TRIPOS>MOLECULE
*****
 44 48 0 0 0
SMALL
GASTEIGER

@<TRIPOS>ATOM
      1 C          61.7133   87.4034    9.8731 C.ar    1  UNL1        0.0611
      2 C          61.7325   85.9091    9.7431 C.ar    1  UNL1        0.0112
      3 C          62.2744   85.0662   10.8592 C.ar    1  UNL1        0.0208
      4 C          62.7972   85.7175   12.1053 C.ar    1  UNL1        0.1218
      5 N          62.7780   87.2117   12.2352 N.ar    1  UNL1       -0.2421
      6 C          62.2360   88.0547   11.1191 C.ar    1  UNL1        0.1068
      7 C          63.3392   84.8745   13.2214 C.3     1  UNL1        0.3254
      8 F          64.3927   85.9218   13.0129 F       1  UNL1       -0.1949
      9 F          62.1182   84.0055   13.1579 F       1  UNL1       -0.1949
     10 C          63.8811   84.0316   14.3375 C.3     1  UNL1        0.1932
     11 O          64.4231   83.1886   15.4536 O.3     1  UNL1       -0.3755
     12 H          64.7743   83.7633   16.1517 H       1  UNL1        0.2110
     13 C          63.4968   82.7909   13.5871 C.ar    1  UNL1        0.0368
     14 C          62.4786   81.8516   14.1624 C.ar    1  UNL1        0.0028
     15 C          62.0943   80.6109   13.4120 C.ar    1  UNL1        0.0295
     16 C          62.7280   80.3096   12.0863 C.ar    1  UNL1        0.1424
     17 F          62.3437   79.0690   11.3360 F       1  UNL1       -0.2041
     18 C          63.7461   81.2490   11.5110 C.ar    1  UNL1        0.0590
     19 C          64.1305   82.4896   12.2614 C.ar    1  UNL1        0.1408
     20 F          65.1487   83.4290   11.6860 F       1  UNL1       -0.2043
     21 C          64.2655   85.2722   15.0879 C.3     1  UNL1        0.1679
     22 N          63.2732   85.9381   15.9944 N.ar    1  UNL1       -0.2078
     23 C          63.3754   87.3307   16.5421 C.ar    1  UNL1        0.2216
     24 N          62.1698   87.5816   17.3987 N.ar    1  UNL1       -0.1048
     25 N          61.3225   86.3439   17.3805 N.ar    1  UNL1       -0.0226
     26 N          62.0045   85.3282   16.5126 N.ar    1  UNL1       -0.0428
     27 C          60.6293   89.0893    7.6409 C.1     1  UNL1       -0.0597
     28 C          61.1713   88.2464    8.7570 C.1     1  UNL1       -0.0582
     29 C          59.0034   91.6182    4.2926 C.ar    1  UNL1        0.1391
     30 C          58.0632   90.9280    5.2358 C.ar    1  UNL1        0.0375
     31 C          58.6051   90.0850    6.3519 C.ar    1  UNL1        0.0114
     32 C          60.0874   89.9323    6.5248 C.ar    1  UNL1        0.0422
     33 C          61.0275   90.6225    5.5816 C.ar    1  UNL1        0.0114
     34 C          60.4855   91.4655    4.4655 C.ar    1  UNL1        0.0375
     35 O          58.4615   92.4612    3.1764 O.3     1  UNL1       -0.4706
     36 C          59.4000   93.1101    2.2028 C.3     1  UNL1        0.2320
     37 C          58.4994   93.0006   -2.2048 C.ar    1  UNL1        0.0684
     38 C          57.4016   92.7698   -1.2090 C.ar    1  UNL1        0.0101
     39 C          57.7018   92.8063    0.2602 C.ar    1  UNL1       -0.0000
     40 C          59.0998   93.0736    0.7336 C.ar    1  UNL1        0.0212
     41 C          60.1976   93.3043   -0.2622 C.ar    1  UNL1       -0.0000
     42 C          59.8973   93.2678   -1.7313 C.ar    1  UNL1        0.0101
     43 N          57.8989   92.9276   -5.1432 N.1     1  UNL1       -0.1908
     44 C          58.1992   92.9641   -3.6740 C.1     1  UNL1        0.1004
@<TRIPOS>BOND
     1    43    44    3
     2    44    37    1
     3    37    38   ar
     4    38    39   ar
     5    39    40   ar
     6    40    36    1
     7    36    35    1
     8    35    29    1
     9    29    30   ar
    10    30    31   ar
    11    31    32   ar
    12    32    27    1
    13    27    28    3
    14    28     1    1
    15     1     2   ar
    16     2     3   ar
    17     3     4   ar
    18     4     7    1
    19     7     8    1
    20     7     9    1
    21     7    10    1
    22    10    11    1
    23    10    21    1
    24    21    22    1
    25    22    23   ar
    26    23    24   ar
    27    24    25   ar
    28    25    26   ar
    29    10    13    1
    30    13    14   ar
    31    14    15   ar
    32    15    16   ar
    33    16    17    1
    34    16    18   ar
    35    18    19   ar
    36    19    20    1
    37     4     5   ar
    38     5     6   ar
    39    32    33   ar
    40    33    34   ar
    41    40    41   ar
    42    41    42   ar
    43    42    37   ar
    44    34    29   ar
    45     6     1   ar
    46    26    22   ar
    47    19    13   ar
    48    11    12    1
@<TRIPOS>MOLECULE
*****
 44 48 0 0 0
SMALL
GASTEIGER

@<TRIPOS>ATOM
      1 C          61.4670   87.5916    9.4633 C.ar    1  UNL1        0.0611
      2 C          61.5392   86.1058    9.2702 C.ar    1  UNL1        0.0112
      3 C          62.0426   85.2290   10.3782 C.ar    1  UNL1        0.0208
      4 C          62.4739   85.8380   11.6795 C.ar    1  UNL1        0.1218
      5 N          62.4017   87.3238   11.8726 N.ar    1  UNL1       -0.2421
      6 C          61.8983   88.2005   10.7645 C.ar    1  UNL1        0.1068
      7 C          62.9774   84.9613   12.7875 C.3     1  UNL1        0.3254
      8 F          61.6298   85.4138   13.2665 F       1  UNL1       -0.1949
      9 F          64.2407   84.7136   12.0176 F       1  UNL1       -0.1949
     10 C          63.4808   84.0845   13.8956 C.3     1  UNL1        0.1932
     11 O          63.9843   83.2077   15.0037 O.3     1  UNL1       -0.3755
     12 H          64.1127   82.3062   14.6696 H       1  UNL1        0.2110
     13 C          63.4482   85.2533   14.8352 C.ar    1  UNL1        0.0368
     14 C          64.2000   86.5070   14.4992 C.ar    1  UNL1        0.0028
     15 C          64.1674   87.6757   15.4389 C.ar    1  UNL1        0.0295
     16 C          63.3829   87.5908   16.7145 C.ar    1  UNL1        0.1424
     17 F          63.3502   88.7596   17.6541 F       1  UNL1       -0.2041
     18 C          62.6311   86.3371   17.0505 C.ar    1  UNL1        0.0590
     19 C          62.6637   85.1684   16.1109 C.ar    1  UNL1        0.1408
     20 F          61.9118   83.9146   16.4470 F       1  UNL1       -0.2043
     21 C          63.5135   82.9157   12.9560 C.3     1  UNL1        0.1679
     22 N          62.6847   81.6990   13.2433 N.ar    1  UNL1       -0.2078
     23 C          62.8927   80.3328   12.6603 C.ar    1  UNL1        0.2216
     24 N          61.8389   79.4242   13.2209 N.ar    1  UNL1       -0.1048
     25 N          60.9796   80.2290   14.1503 N.ar    1  UNL1       -0.0226
     26 N          61.5023   81.6349   14.1642 N.ar    1  UNL1       -0.0428
     27 C          60.4601   89.3451    7.2472 C.1     1  UNL1       -0.0597
     28 C          60.9635   88.4683    8.3553 C.1     1  UNL1       -0.0582
     29 C          58.9497   91.9754    3.9230 C.ar    1  UNL1        0.1391
     30 C          60.4210   91.7227    4.0698 C.ar    1  UNL1        0.0375
     31 C          60.9245   90.8459    5.1779 C.ar    1  UNL1        0.0114
     32 C          59.9566   90.2219    6.1392 C.ar    1  UNL1        0.0422
     33 C          58.4854   90.4747    5.9923 C.ar    1  UNL1        0.0114
     34 C          57.9819   91.3514    4.8843 C.ar    1  UNL1        0.0375
     35 O          58.4462   92.8522    2.8150 O.3     1  UNL1       -0.4706
     36 C          59.0087   92.7101    1.4317 C.3     1  UNL1        0.2320
     37 C          62.9815   94.5640    0.4169 C.ar    1  UNL1        0.0684
     38 C          62.0338   95.2771    1.3352 C.ar    1  UNL1        0.0101
     39 C          60.7095   94.6591    1.6734 C.ar    1  UNL1       -0.0000
     40 C          60.3330   93.3281    1.0934 C.ar    1  UNL1        0.0212
     41 C          61.2807   92.6150    0.1752 C.ar    1  UNL1       -0.0000
     42 C          62.6050   93.2329   -0.1631 C.ar    1  UNL1        0.0101
     43 N          65.6301   95.7999   -0.2597 N.1     1  UNL1       -0.1908
     44 C          64.3058   95.1819    0.0786 C.1     1  UNL1        0.1004
@<TRIPOS>BOND
     1    43    44    3
     2    44    37    1
     3    37    38   ar
     4    38    39   ar
     5    39    40   ar
     6    40    36    1
     7    36    35    1
     8    35    29    1
     9    29    30   ar
    10    30    31   ar
    11    31    32   ar
    12    32    27    1
    13    27    28    3
    14    28     1    1
    15     1     2   ar
    16     2     3   ar
    17     3     4   ar
    18     4     7    1
    19     7     8    1
    20     7     9    1
    21     7    10    1
    22    10    11    1
    23    10    21    1
    24    21    22    1
    25    22    23   ar
    26    23    24   ar
    27    24    25   ar
    28    25    26   ar
    29    10    13    1
    30    13    14   ar
    31    14    15   ar
    32    15    16   ar
    33    16    17    1
    34    16    18   ar
    35    18    19   ar
    36    19    20    1
    37     4     5   ar
    38     5     6   ar
    39    32    33   ar
    40    33    34   ar
    41    40    41   ar
    42    41    42   ar
    43    42    37   ar
    44    34    29   ar
    45     6     1   ar
    46    26    22   ar
    47    19    13   ar
    48    11    12    1
@<TRIPOS>MOLECULE
*****
 44 48 0 0 0
SMALL
GASTEIGER

@<TRIPOS>ATOM
      1 C          61.4928   87.5676    9.4353 C.ar    1  UNL1        0.0611
      2 C          61.7307   86.1065    9.1930 C.ar    1  UNL1        0.0112
      3 C          62.2274   85.2327   10.3064 C.ar    1  UNL1        0.0208
      4 C          62.4863   85.8201   11.6622 C.ar    1  UNL1        0.1218
      5 N          62.2485   87.2811   11.9045 N.ar    1  UNL1       -0.2421
      6 C          61.7517   88.1549   10.7910 C.ar    1  UNL1        0.1068
      7 C          62.9831   84.9463   12.7756 C.3     1  UNL1        0.3254
      8 F          64.0847   84.8997   11.7585 F       1  UNL1       -0.1949
      9 F          61.7240   85.2124   13.5462 F       1  UNL1       -0.1949
     10 C          63.4799   84.0726   13.8891 C.3     1  UNL1        0.1932
     11 O          63.9767   83.1988   15.0025 O.3     1  UNL1       -0.3755
     12 H          64.0988   82.2944   14.6739 H       1  UNL1        0.2110
     13 C          63.4553   85.2471   14.8218 C.ar    1  UNL1        0.0368
     14 C          64.2008   86.5002   14.4697 C.ar    1  UNL1        0.0028
     15 C          64.1761   87.6747   15.4024 C.ar    1  UNL1        0.0295
     16 C          63.4060   87.5961   16.6871 C.ar    1  UNL1        0.1424
     17 F          63.3813   88.7707   17.6198 F       1  UNL1       -0.2041
     18 C          62.6605   86.3431   17.0392 C.ar    1  UNL1        0.0590
     19 C          62.6851   85.1686   16.1065 C.ar    1  UNL1        0.1408
     20 F          61.9395   83.9155   16.4587 F       1  UNL1       -0.2043
     21 C          63.5045   82.8981   12.9564 C.3     1  UNL1        0.1679
     22 N          62.6714   81.6867   13.2537 N.ar    1  UNL1       -0.2078
     23 C          62.8832   80.3117   12.6929 C.ar    1  UNL1        0.2216
     24 N          61.8229   79.4128   13.2567 N.ar    1  UNL1       -0.1048
     25 N          60.9558   80.2322   14.1659 N.ar    1  UNL1       -0.0226
     26 N          61.4802   81.6375   14.1641 N.ar    1  UNL1       -0.0428
     27 C          60.4992   89.3151    7.2084 C.1     1  UNL1       -0.0597
     28 C          60.9960   88.4414    8.3219 C.1     1  UNL1       -0.0582
     29 C          59.0089   91.9364    3.8681 C.ar    1  UNL1        0.1391
     30 C          60.4798   91.6895    4.0285 C.ar    1  UNL1        0.0375
     31 C          60.9766   90.8158    5.1419 C.ar    1  UNL1        0.0114
     32 C          60.0025   90.1889    6.0950 C.ar    1  UNL1        0.0422
     33 C          58.5317   90.4358    5.9346 C.ar    1  UNL1        0.0114
     34 C          58.0349   91.3096    4.8211 C.ar    1  UNL1        0.0375
     35 O          58.5121   92.8102    2.7547 O.3     1  UNL1       -0.4706
     36 C          59.4505   93.2487    1.6697 C.3     1  UNL1        0.2320
     37 C          58.2447   92.8453   -2.6469 C.ar    1  UNL1        0.0684
     38 C          57.2261   92.6535   -1.5626 C.ar    1  UNL1        0.0101
     39 C          57.6281   92.7879   -0.1237 C.ar    1  UNL1       -0.0000
     40 C          59.0485   93.1142    0.2308 C.ar    1  UNL1        0.0212
     41 C          60.0671   93.3060   -0.8535 C.ar    1  UNL1       -0.0000
     42 C          59.6651   93.1715   -2.2924 C.ar    1  UNL1        0.0101
     43 N          57.4408   92.5763   -5.5247 N.1     1  UNL1       -0.1908
     44 C          57.8427   92.7108   -4.0858 C.1     1  UNL1        0.1004
@<TRIPOS>BOND
     1    43    44    3
     2    44    37    1
     3    37    38   ar
     4    38    39   ar
     5    39    40   ar
     6    40    36    1
     7    36    35    1
     8    35    29    1
     9    29    30   ar
    10    30    31   ar
    11    31    32   ar
    12    32    27    1
    13    27    28    3
    14    28     1    1
    15     1     2   ar
    16     2     3   ar
    17     3     4   ar
    18     4     7    1
    19     7     8    1
    20     7     9    1
    21     7    10    1
    22    10    11    1
    23    10    21    1
    24    21    22    1
    25    22    23   ar
    26    23    24   ar
    27    24    25   ar
    28    25    26   ar
    29    10    13    1
    30    13    14   ar
    31    14    15   ar
    32    15    16   ar
    33    16    17    1
    34    16    18   ar
    35    18    19   ar
    36    19    20    1
    37     4     5   ar
    38     5     6   ar
    39    32    33   ar
    40    33    34   ar
    41    40    41   ar
    42    41    42   ar
    43    42    37   ar
    44    34    29   ar
    45     6     1   ar
    46    26    22   ar
    47    19    13   ar
    48    11    12    1
@<TRIPOS>MOLECULE
*****
 44 48 0 0 0
SMALL
GASTEIGER

@<TRIPOS>ATOM
      1 C          60.3246   91.7289    4.0995 C.ar    1  UNL1        0.0611
      2 C          61.5675   92.0114    3.3087 C.ar    1  UNL1        0.0112
      3 C          61.4929   92.8537    2.0698 C.ar    1  UNL1        0.0208
      4 C          60.1754   93.4137    1.6218 C.ar    1  UNL1        0.1218
      5 N          58.9325   93.1312    2.4126 N.ar    1  UNL1       -0.2421
      6 C          59.0071   92.2888    3.6515 C.ar    1  UNL1        0.1068
      7 C          60.1008   94.2560    0.3829 C.3     1  UNL1        0.3254
      8 F          60.6338   92.9410   -0.1039 F       1  UNL1       -0.1949
      9 F          59.5702   95.4012    1.1934 F       1  UNL1       -0.1949
     10 C          60.0262   95.0984   -0.8560 C.3     1  UNL1        0.1932
     11 O          59.9516   95.9408   -2.0949 O.3     1  UNL1       -0.3755
     12 H          60.5912   96.6672   -2.0310 H       1  UNL1        0.2110
     13 C          58.9508   94.2047   -1.3989 C.ar    1  UNL1        0.0368
     14 C          57.5773   94.2327   -0.7966 C.ar    1  UNL1        0.0028
     15 C          56.5019   93.3391   -1.3395 C.ar    1  UNL1        0.0295
     16 C          56.7998   92.4174   -2.4847 C.ar    1  UNL1        0.1424
     17 F          55.7244   91.5237   -3.0276 F       1  UNL1       -0.2041
     18 C          58.1733   92.3894   -3.0871 C.ar    1  UNL1        0.0590
     19 C          59.2487   93.2830   -2.5442 C.ar    1  UNL1        0.1408
     20 F          60.6222   93.2550   -3.1466 F       1  UNL1       -0.2043
     21 C          61.1017   95.9921   -0.3131 C.3     1  UNL1        0.1679
     22 N          62.5424   95.6955   -0.6067 N.ar    1  UNL1       -0.2078
     23 C          63.6409   95.5694    0.4068 C.ar    1  UNL1        0.2216
     24 N          64.9151   95.2689   -0.3256 N.ar    1  UNL1       -0.1048
     25 N          64.6040   95.2092   -1.7917 N.ar    1  UNL1       -0.0226
     26 N          63.1377   95.4728   -1.9655 N.ar    1  UNL1       -0.0428
     27 C          60.4737   90.0442    6.5773 C.1     1  UNL1       -0.0597
     28 C          60.3992   90.8866    5.3384 C.1     1  UNL1       -0.0582
     29 C          60.6975   87.5171   10.2940 C.ar    1  UNL1        0.1391
     30 C          60.0816   86.9605    9.0446 C.ar    1  UNL1        0.0375
     31 C          60.0070   87.8029    7.8057 C.ar    1  UNL1        0.0114
     32 C          60.5483   89.2018    7.8162 C.ar    1  UNL1        0.0422
     33 C          61.1642   89.7583    9.0656 C.ar    1  UNL1        0.0114
     34 C          61.2388   88.9159   10.3045 C.ar    1  UNL1        0.0375
     35 O          60.7721   86.6747   11.5329 O.3     1  UNL1       -0.4706
     36 C          62.1038   86.2169   12.0495 C.3     1  UNL1        0.2320
     37 C          62.6599   81.9503   13.3676 C.ar    1  UNL1        0.0684
     38 C          62.6739   82.2920   11.9071 C.ar    1  UNL1        0.0101
     39 C          62.4886   83.7142   11.4678 C.ar    1  UNL1       -0.0000
     40 C          62.2892   84.7947   12.4888 C.ar    1  UNL1        0.0212
     41 C          62.2751   84.4530   13.9493 C.ar    1  UNL1       -0.0000
     42 C          62.4605   83.0308   14.3887 C.ar    1  UNL1        0.0101
     43 N          63.0307   79.1060   14.2464 N.1     1  UNL1       -0.1908
     44 C          62.8453   80.5282   13.8070 C.1     1  UNL1        0.1004
@<TRIPOS>BOND
     1    43    44    3
     2    44    37    1
     3    37    38   ar
     4    38    39   ar
     5    39    40   ar
     6    40    36    1
     7    36    35    1
     8    35    29    1
     9    29    30   ar
    10    30    31   ar
    11    31    32   ar
    12    32    27    1
    13    27    28    3
    14    28     1    1
    15     1     2   ar
    16     2     3   ar
    17     3     4   ar
    18     4     7    1
    19     7     8    1
    20     7     9    1
    21     7    10    1
    22    10    11    1
    23    10    21    1
    24    21    22    1
    25    22    23   ar
    26    23    24   ar
    27    24    25   ar
    28    25    26   ar
    29    10    13    1
    30    13    14   ar
    31    14    15   ar
    32    15    16   ar
    33    16    17    1
    34    16    18   ar
    35    18    19   ar
    36    19    20    1
    37     4     5   ar
    38     5     6   ar
    39    32    33   ar
    40    33    34   ar
    41    40    41   ar
    42    41    42   ar
    43    42    37   ar
    44    34    29   ar
    45     6     1   ar
    46    26    22   ar
    47    19    13   ar
    48    11    12    1
@<TRIPOS>MOLECULE
*****
 44 48 0 0 0
SMALL
GASTEIGER

@<TRIPOS>ATOM
      1 C          60.2975   91.4571    4.4336 C.ar    1  UNL1        0.0611
      2 C          61.5161   91.7140    3.5975 C.ar    1  UNL1        0.0112
      3 C          61.4068   92.5296    2.3434 C.ar    1  UNL1        0.0208
      4 C          60.0789   93.0883    1.9254 C.ar    1  UNL1        0.1218
      5 N          58.8604   92.8314    2.7615 N.ar    1  UNL1       -0.2421
      6 C          58.9697   92.0158    4.0156 C.ar    1  UNL1        0.1068
      7 C          59.9696   93.9039    0.6713 C.3     1  UNL1        0.3254
      8 F          60.5178   92.5887    0.2023 F       1  UNL1       -0.1949
      9 F          59.4320   95.0560    1.4673 F       1  UNL1       -0.1949
     10 C          59.8603   94.7195   -0.5829 C.3     1  UNL1        0.1932
     11 O          59.7510   95.5352   -1.8370 O.3     1  UNL1       -0.3755
     12 H          58.8249   95.5648   -2.1237 H       1  UNL1        0.2110
     13 C          61.3408   94.9592   -0.5560 C.ar    1  UNL1        0.0368
     14 C          61.9210   95.9626    0.3960 C.ar    1  UNL1        0.0028
     15 C          63.4015   96.2023    0.4229 C.ar    1  UNL1        0.0295
     16 C          64.3018   95.4385   -0.5024 C.ar    1  UNL1        0.1424
     17 F          65.7823   95.6782   -0.4755 F       1  UNL1       -0.2041
     18 C          63.7216   94.4351   -1.4544 C.ar    1  UNL1        0.0590
     19 C          62.2411   94.1955   -1.4813 C.ar    1  UNL1        0.1408
     20 F          61.6609   93.1920   -2.4334 F       1  UNL1       -0.2043
     21 C          58.3799   94.4799   -0.6097 C.3     1  UNL1        0.1679
     22 N          57.7922   93.5281   -1.6090 N.ar    1  UNL1       -0.2078
     23 C          56.3832   93.0138   -1.6139 C.ar    1  UNL1        0.2216
     24 N          56.2305   92.0912   -2.7869 N.ar    1  UNL1       -0.1048
     25 N          57.5452   92.0354   -3.5069 N.ar    1  UNL1       -0.0226
     26 N          58.5104   92.9234   -2.7790 N.ar    1  UNL1       -0.0428
     27 C          60.5161   89.8259    6.9419 C.1     1  UNL1       -0.0597
     28 C          60.4068   90.6415    5.6878 C.1     1  UNL1       -0.0582
     29 C          60.8440   87.3790   10.7043 C.ar    1  UNL1        0.1391
     30 C          61.0566   88.8631   10.7539 C.ar    1  UNL1        0.0375
     31 C          60.9473   89.6787    9.4997 C.ar    1  UNL1        0.0114
     32 C          60.6254   89.0103    8.1960 C.ar    1  UNL1        0.0422
     33 C          60.4128   87.5263    8.1465 C.ar    1  UNL1        0.0114
     34 C          60.5221   86.7106    9.4006 C.ar    1  UNL1        0.0375
     35 O          60.9533   86.5634   11.9584 O.3     1  UNL1       -0.4706
     36 C          62.2692   85.9569   12.3463 C.3     1  UNL1        0.2320
     37 C          62.5201   81.5769   13.3475 C.ar    1  UNL1        0.0684
     38 C          62.6874   82.0326   11.9283 C.ar    1  UNL1        0.0101
     39 C          62.6038   83.4926   11.5945 C.ar    1  UNL1       -0.0000
     40 C          62.3528   84.4969   12.6800 C.ar    1  UNL1        0.0212
     41 C          62.1855   84.0412   14.0993 C.ar    1  UNL1       -0.0000
     42 C          62.2691   82.5812   14.4330 C.ar    1  UNL1        0.0101
     43 N          62.6873   78.6569   14.0149 N.1     1  UNL1       -0.1908
     44 C          62.6037   80.1169   13.6812 C.1     1  UNL1        0.1004
@<TRIPOS>BOND
     1    43    44    3
     2    44    37    1
     3    37    38   ar
     4    38    39   ar
     5    39    40   ar
     6    40    36    1
     7    36    35    1
     8    35    29    1
     9    29    30   ar
    10    30    31   ar
    11    31    32   ar
    12    32    27    1
    13    27    28    3
    14    28     1    1
    15     1     2   ar
    16     2     3   ar
    17     3     4   ar
    18     4     7    1
    19     7     8    1
    20     7     9    1
    21     7    10    1
    22    10    11    1
    23    10    21    1
    24    21    22    1
    25    22    23   ar
    26    23    24   ar
    27    24    25   ar
    28    25    26   ar
    29    10    13    1
    30    13    14   ar
    31    14    15   ar
    32    15    16   ar
    33    16    17    1
    34    16    18   ar
    35    18    19   ar
    36    19    20    1
    37     4     5   ar
    38     5     6   ar
    39    32    33   ar
    40    33    34   ar
    41    40    41   ar
    42    41    42   ar
    43    42    37   ar
    44    34    29   ar
    45     6     1   ar
    46    26    22   ar
    47    19    13   ar
    48    11    12    1
@<TRIPOS>MOLECULE
*****
 44 48 0 0 0
SMALL
GASTEIGER

@<TRIPOS>ATOM
      1 C          61.4699   87.3314    9.7621 C.ar    1  UNL1        0.0611
      2 C          61.3628   85.8414    9.6261 C.ar    1  UNL1        0.0112
      3 C          61.8348   84.9510   10.7371 C.ar    1  UNL1        0.0208
      4 C          62.4139   85.5506   11.9842 C.ar    1  UNL1        0.1218
      5 N          62.5209   87.0406   12.1202 N.ar    1  UNL1       -0.2421
      6 C          62.0490   87.9310   11.0091 C.ar    1  UNL1        0.1068
      7 C          62.8858   84.6603   13.0953 C.3     1  UNL1        0.3254
      8 F          64.0086   84.6263   12.1011 F       1  UNL1       -0.1949
      9 F          61.6110   84.9173   13.8428 F       1  UNL1       -0.1949
     10 C          63.3578   83.7699   14.2064 C.3     1  UNL1        0.1932
     11 O          63.8297   82.8795   15.3174 O.3     1  UNL1       -0.3755
     12 H          63.9712   81.9829   14.9754 H       1  UNL1        0.2110
     13 C          63.2925   84.9256   15.1603 C.ar    1  UNL1        0.0368
     14 C          62.2658   84.9387   16.2536 C.ar    1  UNL1        0.0028
     15 C          62.2005   86.0944   17.2076 C.ar    1  UNL1        0.0295
     16 C          63.1621   87.2372   17.0681 C.ar    1  UNL1        0.1424
     17 F          63.0968   88.3929   18.0220 F       1  UNL1       -0.2041
     18 C          64.1888   87.2242   15.9747 C.ar    1  UNL1        0.0590
     19 C          64.2541   86.0684   15.0208 C.ar    1  UNL1        0.1408
     20 F          65.2809   86.0554   13.9274 F       1  UNL1       -0.2043
     21 C          63.4230   82.6141   13.2525 C.3     1  UNL1        0.1679
     22 N          62.5032   81.4426   13.4296 N.ar    1  UNL1       -0.2078
     23 C          62.7096   80.0669   12.8687 C.ar    1  UNL1        0.2216
     24 N          61.5494   79.2151   13.2913 N.ar    1  UNL1       -0.1048
     25 N          60.6260   80.0644   14.1134 N.ar    1  UNL1       -0.0226
     26 N          61.2154   81.4411   14.1989 N.ar    1  UNL1       -0.0428
     27 C          60.5260   89.1121    7.5399 C.1     1  UNL1       -0.0597
     28 C          60.9980   88.2218    8.6510 C.1     1  UNL1       -0.0582
     29 C          59.1101   91.7833    4.2067 C.ar    1  UNL1        0.1391
     30 C          60.5766   91.5268    4.3908 C.ar    1  UNL1        0.0375
     31 C          61.0486   90.6365    5.5019 C.ar    1  UNL1        0.0114
     32 C          60.0541   90.0025    6.4289 C.ar    1  UNL1        0.0422
     33 C          58.5877   90.2590    6.2447 C.ar    1  UNL1        0.0114
     34 C          58.1157   91.1494    5.1337 C.ar    1  UNL1        0.0375
     35 O          58.6382   92.6737    3.0957 O.3     1  UNL1       -0.4706
     36 C          59.5093   93.7947    2.6115 C.3     1  UNL1        0.2320
     37 C          61.7799   93.3728   -1.2507 C.ar    1  UNL1        0.0684
     38 C          61.9141   94.6242   -0.4346 C.ar    1  UNL1        0.0101
     39 C          61.1572   94.7648    0.8528 C.ar    1  UNL1       -0.0000
     40 C          60.2661   93.6541    1.3241 C.ar    1  UNL1        0.0212
     41 C          60.1319   92.4027    0.5080 C.ar    1  UNL1       -0.0000
     42 C          60.8888   92.2621   -0.7794 C.ar    1  UNL1        0.0101
     43 N          63.2936   93.0916   -3.8255 N.1     1  UNL1       -0.1908
     44 C          62.5368   93.2322   -2.5381 C.1     1  UNL1        0.1004
@<TRIPOS>BOND
     1    43    44    3
     2    44    37    1
     3    37    38   ar
     4    38    39   ar
     5    39    40   ar
     6    40    36    1
     7    36    35    1
     8    35    29    1
     9    29    30   ar
    10    30    31   ar
    11    31    32   ar
    12    32    27    1
    13    27    28    3
    14    28     1    1
    15     1     2   ar
    16     2     3   ar
    17     3     4   ar
    18     4     7    1
    19     7     8    1
    20     7     9    1
    21     7    10    1
    22    10    11    1
    23    10    21    1
    24    21    22    1
    25    22    23   ar
    26    23    24   ar
    27    24    25   ar
    28    25    26   ar
    29    10    13    1
    30    13    14   ar
    31    14    15   ar
    32    15    16   ar
    33    16    17    1
    34    16    18   ar
    35    18    19   ar
    36    19    20    1
    37     4     5   ar
    38     5     6   ar
    39    32    33   ar
    40    33    34   ar
    41    40    41   ar
    42    41    42   ar
    43    42    37   ar
    44    34    29   ar
    45     6     1   ar
    46    26    22   ar
    47    19    13   ar
    48    11    12    1
