@<TRIPOS>MOLECULE
*****
 25 28 0 0 0
SMALL
GASTEIGER

@<TRIPOS>ATOM
      1 C          61.5100   87.1784   10.7889 C.3     1  UNL1        0.1140
      2 C          62.2325   88.4535   11.1088 C.ar    1  UNL1        0.0273
      3 C          63.2243   88.8040   12.1782 C.ar    1  UNL1        0.1379
      4 F          63.6515   87.7668   13.1740 F       1  UNL1       -0.2044
      5 C          63.7888   90.1918   12.2517 C.ar    1  UNL1        0.0294
      6 C          63.3616   91.2289   11.2559 C.ar    1  UNL1        0.0023
      7 C          62.3698   90.8784   10.1865 C.ar    1  UNL1        0.0014
      8 C          61.8053   89.4907   10.1130 C.ar    1  UNL1        0.0173
      9 C          60.8187   88.8567    9.1776 C.ar    1  UNL1        0.0804
     10 C          59.9450   89.1060    7.9842 C.ar    1  UNL1        0.1178
     11 N          59.2225   87.8310    7.6643 N.ar    1  UNL1       -0.2223
     12 C          59.6497   86.7937    8.6601 C.ar    1  UNL1        0.1788
     13 N          60.6362   87.4277    9.5954 N.ar    1  UNL1       -0.3068
     14 C          61.6386   85.8818   11.5321 C.3     1  UNL1        0.0565
     15 O          63.1247   84.9171    9.6318 O.3     1  UNL1       -0.3844
     16 C          62.5412   84.8040   11.0091 C.3     1  UNL1        0.1127
     17 H          62.8205   85.7401    9.2184 H       1  UNL1        0.2103
     18 C          62.8602   83.6129   11.8633 C.3     1  UNL1        0.0272
     19 C          62.7360   82.2293   11.2975 C.3     1  UNL1        0.0049
     20 C          63.0551   81.0383   12.1517 C.3     1  UNL1        0.0293
     21 C          63.4984   81.2309   13.5717 C.3     1  UNL1        0.1105
     22 O          63.8174   80.0399   14.4259 O.3     1  UNL1       -0.3845
     23 C          63.6226   82.6145   14.1376 C.3     1  UNL1        0.0293
     24 C          63.3035   83.8056   13.2834 C.3     1  UNL1        0.0049
     25 H          64.0859   80.3380   15.3090 H       1  UNL1        0.2103
@<TRIPOS>BOND
     1    16    15    1
     2    16    14    1
     3     1    14    1
     4     1     2    1
     5     2     3   ar
     6     3     4    1
     7     3     5   ar
     8     5     6   ar
     9     6     7   ar
    10     7     8   ar
    11     8     9    1
    12     9    10   ar
    13    10    11   ar
    14    11    12   ar
    15    12    13   ar
    16    16    18    1
    17    18    19    1
    18    19    20    1
    19    20    21    1
    20    21    22    1
    21    21    23    1
    22    23    24    1
    23    13     1    1
    24    24    18    1
    25     8     2   ar
    26    13     9   ar
    27    15    17    1
    28    22    25    1
@<TRIPOS>MOLECULE
*****
 25 28 0 0 0
SMALL
GASTEIGER

@<TRIPOS>ATOM
      1 C          61.8475   88.7537   11.0014 C.3     1  UNL1        0.1140
      2 C          62.3507   87.4343   11.5075 C.ar    1  UNL1        0.0273
      3 C          63.2217   87.0728   12.6739 C.ar    1  UNL1        0.1379
      4 F          63.7500   88.1476   13.5770 F       1  UNL1       -0.2044
      5 C          63.5644   85.6364   12.9373 C.ar    1  UNL1        0.0294
      6 C          63.0361   84.5616   12.0341 C.ar    1  UNL1        0.0023
      7 C          62.1651   84.9231   10.8677 C.ar    1  UNL1        0.0014
      8 C          61.8224   86.3595   10.6043 C.ar    1  UNL1        0.0173
      9 C          60.9927   87.0146    9.5401 C.ar    1  UNL1        0.0804
     10 C          60.1535   86.7551    8.3243 C.ar    1  UNL1        0.1178
     11 N          59.6503   88.0745    7.8182 N.ar    1  UNL1       -0.2223
     12 C          60.1786   89.1494    8.7213 C.ar    1  UNL1        0.1788
     13 N          61.0083   88.4943    9.7855 N.ar    1  UNL1       -0.3068
     14 C          62.1334   90.0967   11.6052 C.3     1  UNL1        0.0565
     15 O          62.8572   91.4719    9.5230 O.3     1  UNL1       -0.3844
     16 C          63.0986   91.0298   10.9360 C.3     1  UNL1        0.1127
     17 H          62.0407   91.0658    9.1922 H       1  UNL1        0.2103
     18 C          64.3051   91.5209   11.6797 C.3     1  UNL1        0.0272
     19 C          64.4739   91.1946   13.1340 C.3     1  UNL1        0.0049
     20 C          65.6804   91.6857   13.8777 C.3     1  UNL1        0.0293
     21 C          66.7182   92.5030   13.1671 C.3     1  UNL1        0.1105
     22 O          67.9247   92.9941   13.9108 O.3     1  UNL1       -0.3845
     23 C          66.5494   92.8293   11.7128 C.3     1  UNL1        0.0293
     24 C          65.3429   92.3383   10.9691 C.3     1  UNL1        0.0049
     25 H          68.4907   93.5025   13.3091 H       1  UNL1        0.2103
@<TRIPOS>BOND
     1    16    15    1
     2    16    14    1
     3     1    14    1
     4     1     2    1
     5     2     3   ar
     6     3     4    1
     7     3     5   ar
     8     5     6   ar
     9     6     7   ar
    10     7     8   ar
    11     8     9    1
    12     9    10   ar
    13    10    11   ar
    14    11    12   ar
    15    12    13   ar
    16    16    18    1
    17    18    19    1
    18    19    20    1
    19    20    21    1
    20    21    22    1
    21    21    23    1
    22    23    24    1
    23    13     1    1
    24    24    18    1
    25     8     2   ar
    26    13     9   ar
    27    15    17    1
    28    22    25    1
@<TRIPOS>MOLECULE
*****
 25 28 0 0 0
SMALL
GASTEIGER

@<TRIPOS>ATOM
      1 C          63.3122   87.2891   12.6958 C.3     1  UNL1        0.1140
      2 C          63.4478   85.8345   13.0361 C.ar    1  UNL1        0.0273
      3 C          64.1422   85.1277   14.1623 C.ar    1  UNL1        0.1379
      4 F          64.8727   85.9181   15.2069 F       1  UNL1       -0.2044
      5 C          64.1059   83.6303   14.2437 C.ar    1  UNL1        0.0294
      6 C          63.3754   82.8399   13.1990 C.ar    1  UNL1        0.0023
      7 C          62.6810   83.5467   12.0728 C.ar    1  UNL1        0.0014
      8 C          62.7172   85.0440   11.9913 C.ar    1  UNL1        0.0173
      9 C          62.1301   86.0101   11.0054 C.ar    1  UNL1        0.0804
     10 C          61.3157   86.1185    9.7504 C.ar    1  UNL1        0.1178
     11 N          61.1801   87.5731    9.4102 N.ar    1  UNL1       -0.2223
     12 C          61.9107   88.3636   10.4549 C.ar    1  UNL1        0.1788
     13 N          62.4978   87.3976   11.4408 N.ar    1  UNL1       -0.3068
     14 C          63.8895   88.4342   13.4739 C.3     1  UNL1        0.0565
     15 O          61.9000   90.0991   13.6153 O.3     1  UNL1       -0.3844
     16 C          63.3378   89.8173   13.2937 C.3     1  UNL1        0.1127
     17 H          61.4724   89.2852   13.9247 H       1  UNL1        0.2103
     18 C          64.2239   90.9188   12.7919 C.3     1  UNL1        0.0272
     19 C          65.2541   91.5243   13.6984 C.3     1  UNL1        0.0049
     20 C          66.1402   92.6258   13.1966 C.3     1  UNL1        0.0293
     21 C          65.9959   93.1216   11.7883 C.3     1  UNL1        0.1105
     22 O          66.8820   94.2231   11.2866 O.3     1  UNL1       -0.3845
     23 C          64.9656   92.5161   10.8818 C.3     1  UNL1        0.0293
     24 C          64.0796   91.4146   11.3836 C.3     1  UNL1        0.0049
     25 H          66.6595   94.4219   10.3636 H       1  UNL1        0.2103
@<TRIPOS>BOND
     1    16    15    1
     2    16    14    1
     3     1    14    1
     4     1     2    1
     5     2     3   ar
     6     3     4    1
     7     3     5   ar
     8     5     6   ar
     9     6     7   ar
    10     7     8   ar
    11     8     9    1
    12     9    10   ar
    13    10    11   ar
    14    11    12   ar
    15    12    13   ar
    16    16    18    1
    17    18    19    1
    18    19    20    1
    19    20    21    1
    20    21    22    1
    21    21    23    1
    22    23    24    1
    23    13     1    1
    24    24    18    1
    25     8     2   ar
    26    13     9   ar
    27    15    17    1
    28    22    25    1
@<TRIPOS>MOLECULE
*****
 25 28 0 0 0
SMALL
GASTEIGER

@<TRIPOS>ATOM
      1 C          61.8724   88.7812   11.1166 C.3     1  UNL1        0.1140
      2 C          62.3963   87.4737   11.6326 C.ar    1  UNL1        0.0273
      3 C          63.3035   87.1381   12.7790 C.ar    1  UNL1        0.1379
      4 F          63.8540   88.2321   13.6449 F       1  UNL1       -0.2044
      5 C          63.6601   85.7083   13.0595 C.ar    1  UNL1        0.0294
      6 C          63.1095   84.6143   12.1935 C.ar    1  UNL1        0.0023
      7 C          62.2023   84.9499   11.0471 C.ar    1  UNL1        0.0014
      8 C          61.8457   86.3796   10.7666 C.ar    1  UNL1        0.0173
      9 C          60.9815   87.0109    9.7155 C.ar    1  UNL1        0.0804
     10 C          60.1072   86.7248    8.5307 C.ar    1  UNL1        0.1178
     11 N          59.5834   88.0323    8.0148 N.ar    1  UNL1       -0.2223
     12 C          60.1340   89.1264    8.8808 C.ar    1  UNL1        0.1788
     13 N          60.9981   88.4951    9.9319 N.ar    1  UNL1       -0.3068
     14 C          62.1705   90.1367   11.6856 C.3     1  UNL1        0.0565
     15 O          62.9854   91.4065    9.5705 O.3     1  UNL1       -0.3844
     16 C          63.1687   91.0303   11.0110 C.3     1  UNL1        0.1127
     17 H          62.1787   90.9909    9.2279 H       1  UNL1        0.2103
     18 C          64.3501   91.5477   11.7768 C.3     1  UNL1        0.0272
     19 C          65.2127   92.6242   11.1878 C.3     1  UNL1        0.0049
     20 C          66.3941   93.1416   11.9536 C.3     1  UNL1        0.0293
     21 C          66.7130   92.5825   13.3084 C.3     1  UNL1        0.1105
     22 O          67.8945   93.1000   14.0742 O.3     1  UNL1       -0.3845
     23 C          65.8504   91.5060   13.8975 C.3     1  UNL1        0.0293
     24 C          64.6690   90.9885   13.1317 C.3     1  UNL1        0.0049
     25 H          67.9578   92.6357   14.9236 H       1  UNL1        0.2103
@<TRIPOS>BOND
     1    16    15    1
     2    16    14    1
     3     1    14    1
     4     1     2    1
     5     2     3   ar
     6     3     4    1
     7     3     5   ar
     8     5     6   ar
     9     6     7   ar
    10     7     8   ar
    11     8     9    1
    12     9    10   ar
    13    10    11   ar
    14    11    12   ar
    15    12    13   ar
    16    16    18    1
    17    18    19    1
    18    19    20    1
    19    20    21    1
    20    21    22    1
    21    21    23    1
    22    23    24    1
    23    13     1    1
    24    24    18    1
    25     8     2   ar
    26    13     9   ar
    27    15    17    1
    28    22    25    1
@<TRIPOS>MOLECULE
*****
 25 28 0 0 0
SMALL
GASTEIGER

@<TRIPOS>ATOM
      1 C          63.3015   88.6993   12.4643 C.3     1  UNL1        0.1140
      2 C          62.5023   88.1073   11.3414 C.ar    1  UNL1        0.0273
      3 C          61.8256   88.7278   10.1552 C.ar    1  UNL1        0.1379
      4 F          61.8910   90.2116    9.9456 F       1  UNL1       -0.2044
      5 C          61.0835   87.8643    9.1785 C.ar    1  UNL1        0.0294
      6 C          61.0181   86.3806    9.3881 C.ar    1  UNL1        0.0023
      7 C          61.6948   85.7601   10.5743 C.ar    1  UNL1        0.0014
      8 C          62.4369   86.6235   11.5510 C.ar    1  UNL1        0.0173
      9 C          63.1957   86.2983   12.8034 C.ar    1  UNL1        0.0804
     10 C          63.6243   85.1803   13.7069 C.ar    1  UNL1        0.1178
     11 N          64.4235   85.7723   14.8297 N.ar    1  UNL1       -0.2223
     12 C          64.4889   87.2561   14.6202 C.ar    1  UNL1        0.1788
     13 N          63.7301   87.5813   13.3678 N.ar    1  UNL1       -0.3068
     14 C          63.6169   90.1538   12.6509 C.3     1  UNL1        0.0565
     15 O          62.8769   90.5317   15.1125 O.3     1  UNL1       -0.3844
     16 C          63.8960   90.6907   14.0234 C.3     1  UNL1        0.1127
     17 H          62.1020   90.0635   14.7644 H       1  UNL1        0.2103
     18 C          65.1942   91.3866   14.3068 C.3     1  UNL1        0.0272
     19 C          66.2347   91.4997   13.2323 C.3     1  UNL1        0.0049
     20 C          67.5330   92.1956   13.5158 C.3     1  UNL1        0.0293
     21 C          67.7907   92.7784   14.8736 C.3     1  UNL1        0.1105
     22 O          69.0889   93.4743   15.1571 O.3     1  UNL1       -0.3845
     23 C          66.7502   92.6653   15.9482 C.3     1  UNL1        0.0293
     24 C          65.4519   91.9694   15.6648 C.3     1  UNL1        0.0049
     25 H          69.0932   93.7896   16.0744 H       1  UNL1        0.2103
@<TRIPOS>BOND
     1    16    15    1
     2    16    14    1
     3     1    14    1
     4     1     2    1
     5     2     3   ar
     6     3     4    1
     7     3     5   ar
     8     5     6   ar
     9     6     7   ar
    10     7     8   ar
    11     8     9    1
    12     9    10   ar
    13    10    11   ar
    14    11    12   ar
    15    12    13   ar
    16    16    18    1
    17    18    19    1
    18    19    20    1
    19    20    21    1
    20    21    22    1
    21    21    23    1
    22    23    24    1
    23    13     1    1
    24    24    18    1
    25     8     2   ar
    26    13     9   ar
    27    15    17    1
    28    22    25    1
@<TRIPOS>MOLECULE
*****
 25 28 0 0 0
SMALL
GASTEIGER

@<TRIPOS>ATOM
      1 C          61.6236   88.2714   11.0558 C.3     1  UNL1        0.1140
      2 C          60.8639   87.9760    9.7966 C.ar    1  UNL1        0.0273
      3 C          60.0375   88.8452    8.8957 C.ar    1  UNL1        0.1379
      4 F          59.8651   90.3016    9.2102 F       1  UNL1       -0.2044
      5 C          59.3834   88.2578    7.6803 C.ar    1  UNL1        0.0294
      6 C          59.5557   86.8013    7.3659 C.ar    1  UNL1        0.0023
      7 C          60.3822   85.9321    8.2667 C.ar    1  UNL1        0.0014
      8 C          61.0363   86.5195    9.4821 C.ar    1  UNL1        0.0173
      9 C          61.9024   85.9147   10.5470 C.ar    1  UNL1        0.0804
     10 C          62.5443   84.6407   11.0107 C.ar    1  UNL1        0.1178
     11 N          63.3040   84.9361   12.2699 N.ar    1  UNL1       -0.2223
     12 C          63.1316   86.3926   12.5844 C.ar    1  UNL1        0.1788
     13 N          62.2654   86.9974   11.5196 N.ar    1  UNL1       -0.3068
     14 C          61.7238   89.6063   11.7325 C.3     1  UNL1        0.0565
     15 O          62.7412   91.2153    9.9644 O.3     1  UNL1       -0.3844
     16 C          62.7904   90.5775   11.3212 C.3     1  UNL1        0.1127
     17 H          61.9624   90.8936    9.4839 H       1  UNL1        0.2103
     18 C          63.9063   90.9108   12.2666 C.3     1  UNL1        0.0272
     19 C          64.8668   92.0139   11.9339 C.3     1  UNL1        0.0049
     20 C          65.9826   92.3473   12.8793 C.3     1  UNL1        0.0293
     21 C          66.1379   91.5776   14.1574 C.3     1  UNL1        0.1105
     22 O          67.2538   91.9110   15.1028 O.3     1  UNL1       -0.3845
     23 C          65.1774   90.4745   14.4901 C.3     1  UNL1        0.0293
     24 C          64.0616   90.1411   13.5447 C.3     1  UNL1        0.0049
     25 H          67.2109   91.3236   15.8735 H       1  UNL1        0.2103
@<TRIPOS>BOND
     1    16    15    1
     2    16    14    1
     3     1    14    1
     4     1     2    1
     5     2     3   ar
     6     3     4    1
     7     3     5   ar
     8     5     6   ar
     9     6     7   ar
    10     7     8   ar
    11     8     9    1
    12     9    10   ar
    13    10    11   ar
    14    11    12   ar
    15    12    13   ar
    16    16    18    1
    17    18    19    1
    18    19    20    1
    19    20    21    1
    20    21    22    1
    21    21    23    1
    22    23    24    1
    23    13     1    1
    24    24    18    1
    25     8     2   ar
    26    13     9   ar
    27    15    17    1
    28    22    25    1
@<TRIPOS>MOLECULE
*****
 25 28 0 0 0
SMALL
GASTEIGER

@<TRIPOS>ATOM
      1 C          64.6110   91.5916   14.0964 C.3     1  UNL1        0.1140
      2 C          64.9685   92.0066   12.6999 C.ar    1  UNL1        0.0273
      3 C          64.3301   91.7200   11.3732 C.ar    1  UNL1        0.1379
      4 F          63.0966   90.8696   11.3025 F       1  UNL1       -0.2044
      5 C          64.9253   92.2838   10.1170 C.ar    1  UNL1        0.0294
      6 C          66.1589   93.1342   10.1878 C.ar    1  UNL1        0.0023
      7 C          66.7973   93.4209   11.5145 C.ar    1  UNL1        0.0014
      8 C          66.2021   92.8570   12.7706 C.ar    1  UNL1        0.0173
      9 C          66.6071   92.9676   14.2107 C.ar    1  UNL1        0.0804
     10 C          67.6197   93.5616   15.1443 C.ar    1  UNL1        0.1178
     11 N          67.2622   93.1465   16.5407 N.ar    1  UNL1       -0.2223
     12 C          66.0286   92.2961   16.4701 C.ar    1  UNL1        0.1788
     13 N          65.6237   92.1855   15.0301 N.ar    1  UNL1       -0.3068
     14 C          63.4455   90.7333   14.4900 C.3     1  UNL1        0.0565
     15 O          63.3185   90.7302   17.0850 O.3     1  UNL1       -0.3844
     16 C          63.4693   89.9868   15.7909 C.3     1  UNL1        0.1127
     17 H          63.2162   91.6776   16.9037 H       1  UNL1        0.2103
     18 C          63.6438   88.4971   15.7977 C.3     1  UNL1        0.0272
     19 C          63.0675   87.6795   16.9154 C.3     1  UNL1        0.0049
     20 C          63.2420   86.1897   16.9222 C.3     1  UNL1        0.0293
     21 C          63.9929   85.5175   15.8112 C.3     1  UNL1        0.1105
     22 O          64.1675   84.0277   15.8180 O.3     1  UNL1       -0.3845
     23 C          64.5693   86.3350   14.6934 C.3     1  UNL1        0.0293
     24 C          64.3948   87.8248   14.6866 C.3     1  UNL1        0.0049
     25 H          64.6723   83.7577   15.0350 H       1  UNL1        0.2103
@<TRIPOS>BOND
     1    16    15    1
     2    16    14    1
     3     1    14    1
     4     1     2    1
     5     2     3   ar
     6     3     4    1
     7     3     5   ar
     8     5     6   ar
     9     6     7   ar
    10     7     8   ar
    11     8     9    1
    12     9    10   ar
    13    10    11   ar
    14    11    12   ar
    15    12    13   ar
    16    16    18    1
    17    18    19    1
    18    19    20    1
    19    20    21    1
    20    21    22    1
    21    21    23    1
    22    23    24    1
    23    13     1    1
    24    24    18    1
    25     8     2   ar
    26    13     9   ar
    27    15    17    1
    28    22    25    1
@<TRIPOS>MOLECULE
*****
 25 28 0 0 0
SMALL
GASTEIGER

@<TRIPOS>ATOM
      1 C          62.9638   84.8364   13.1059 C.3     1  UNL1        0.1140
      2 C          63.0735   83.4285   12.5999 C.ar    1  UNL1        0.0273
      3 C          63.3242   82.1265   13.3013 C.ar    1  UNL1        0.1379
      4 F          63.5172   82.1008   14.7885 F       1  UNL1       -0.2044
      5 C          63.3818   80.8502   12.5153 C.ar    1  UNL1        0.0294
      6 C          63.1888   80.8759   11.0280 C.ar    1  UNL1        0.0023
      7 C          62.9381   82.1779   10.3266 C.ar    1  UNL1        0.0014
      8 C          62.8804   83.4542   11.1125 C.ar    1  UNL1        0.0173
      9 C          62.6515   84.8779   10.6994 C.ar    1  UNL1        0.0804
     10 C          62.3907   85.7737    9.5248 C.ar    1  UNL1        0.1178
     11 N          62.2810   87.1814   10.0309 N.ar    1  UNL1       -0.2223
     12 C          62.4741   87.1558   11.5182 C.ar    1  UNL1        0.1788
     13 N          62.7030   85.7321   11.9313 N.ar    1  UNL1       -0.3068
     14 C          63.0924   85.2719   14.5355 C.3     1  UNL1        0.0565
     15 O          65.6293   85.5398   15.0282 O.3     1  UNL1       -0.3844
     16 C          64.2505   86.1265   14.9579 C.3     1  UNL1        0.1127
     17 H          65.5965   84.6052   14.7707 H       1  UNL1        0.2103
     18 C          64.0299   87.5678   15.3100 C.3     1  UNL1        0.0272
     19 C          64.5119   88.6476   14.3872 C.3     1  UNL1        0.0049
     20 C          64.2914   90.0889   14.7393 C.3     1  UNL1        0.0293
     21 C          63.5888   90.4504   16.0143 C.3     1  UNL1        0.1105
     22 O          63.3682   91.8917   16.3664 O.3     1  UNL1       -0.3845
     23 C          63.1068   89.3706   16.9372 C.3     1  UNL1        0.0293
     24 C          63.3273   87.9293   16.5851 C.3     1  UNL1        0.0049
     25 H          62.9037   91.9496   17.2160 H       1  UNL1        0.2103
@<TRIPOS>BOND
     1    16    15    1
     2    16    14    1
     3     1    14    1
     4     1     2    1
     5     2     3   ar
     6     3     4    1
     7     3     5   ar
     8     5     6   ar
     9     6     7   ar
    10     7     8   ar
    11     8     9    1
    12     9    10   ar
    13    10    11   ar
    14    11    12   ar
    15    12    13   ar
    16    16    18    1
    17    18    19    1
    18    19    20    1
    19    20    21    1
    20    21    22    1
    21    21    23    1
    22    23    24    1
    23    13     1    1
    24    24    18    1
    25     8     2   ar
    26    13     9   ar
    27    15    17    1
    28    22    25    1
@<TRIPOS>MOLECULE
*****
 25 28 0 0 0
SMALL
GASTEIGER

@<TRIPOS>ATOM
      1 C          63.1952   90.5368   12.6404 C.3     1  UNL1        0.1140
      2 C          64.2144   91.5108   12.1280 C.ar    1  UNL1        0.0273
      3 C          64.5504   91.9758   10.7420 C.ar    1  UNL1        0.1379
      4 F          63.7928   91.4360    9.5655 F       1  UNL1       -0.2044
      5 C          65.6443   92.9808   10.5327 C.ar    1  UNL1        0.0294
      6 C          66.4019   93.5206   11.7093 C.ar    1  UNL1        0.0023
      7 C          66.0659   93.0556   13.0953 C.ar    1  UNL1        0.0014
      8 C          64.9722   92.0507   13.3046 C.ar    1  UNL1        0.0173
      9 C          64.4212   91.4104   14.5442 C.ar    1  UNL1        0.0804
     10 C          64.5490   91.3484   16.0374 C.ar    1  UNL1        0.1178
     11 N          63.5298   90.3744   16.5498 N.ar    1  UNL1       -0.2223
     12 C          62.7720   89.8345   15.3732 C.ar    1  UNL1        0.1788
     13 N          63.3230   90.4748   14.1337 N.ar    1  UNL1       -0.3068
     14 C          62.2194   89.7611   11.8060 C.3     1  UNL1        0.0565
     15 O          63.3066   87.5128   12.5224 O.3     1  UNL1       -0.3844
     16 C          62.4142   88.2883   11.5992 C.3     1  UNL1        0.1127
     17 H          63.6760   88.1096   13.1920 H       1  UNL1        0.2103
     18 C          61.7166   87.5909   10.4692 C.3     1  UNL1        0.0272
     19 C          60.2882   87.9209   10.1517 C.3     1  UNL1        0.0049
     20 C          59.5906   87.2235    9.0217 C.3     1  UNL1        0.0293
     21 C          60.3214   86.1961    8.2091 C.3     1  UNL1        0.1105
     22 O          59.6238   85.4986    7.0791 O.3     1  UNL1       -0.3845
     23 C          61.7498   85.8660    8.5266 C.3     1  UNL1        0.0293
     24 C          62.4474   86.5634    9.6566 C.3     1  UNL1        0.0049
     25 H          60.2334   84.8705    6.6613 H       1  UNL1        0.2103
@<TRIPOS>BOND
     1    16    15    1
     2    16    14    1
     3     1    14    1
     4     1     2    1
     5     2     3   ar
     6     3     4    1
     7     3     5   ar
     8     5     6   ar
     9     6     7   ar
    10     7     8   ar
    11     8     9    1
    12     9    10   ar
    13    10    11   ar
    14    11    12   ar
    15    12    13   ar
    16    16    18    1
    17    18    19    1
    18    19    20    1
    19    20    21    1
    20    21    22    1
    21    21    23    1
    22    23    24    1
    23    13     1    1
    24    24    18    1
    25     8     2   ar
    26    13     9   ar
    27    15    17    1
    28    22    25    1
