@<TRIPOS>MOLECULE
*****
 35 39 0 0 0
SMALL
GASTEIGER

@<TRIPOS>ATOM
      1 C          66.0263   93.7716   12.0246 C.ar    1  UNL1        0.0841
      2 C          66.4641   93.4680   13.4268 C.ar    1  UNL1        0.0430
      3 N          65.7379   92.2373   13.8829 N.ar    1  UNL1       -0.3271
      4 C          64.8514   91.7803   12.7626 C.ar    1  UNL1        0.1098
      5 C          63.9048   90.6231   12.6398 C.ar    1  UNL1        0.1509
      6 N          63.1364   90.4143   11.3686 N.ar    1  UNL1       -0.2075
      7 C          63.3146   91.3625   10.2201 C.ar    1  UNL1        0.2001
      8 N          64.2612   92.5196   10.3428 N.ar    1  UNL1       -0.2222
      9 C          65.0295   92.7285   11.6140 C.ar    1  UNL1        0.1069
     10 C          65.9778   91.6918   15.2594 C.3     1  UNL1        0.1059
     11 C          66.9439   92.3770   16.1798 C.3     1  UNL1        0.0249
     12 C          67.6700   93.6077   15.7237 C.3     1  UNL1        0.0082
     13 C          67.4301   94.1532   14.3472 C.3     1  UNL1        0.0441
     14 N          63.7266   89.6748   13.7884 N.pl3   1  UNL1       -0.2892
     15 C          63.0547   90.1388   15.0467 C.3     1  UNL1        0.1095
     16 C          62.8765   89.1905   16.1952 C.3     1  UNL1        0.0939
     17 N          63.3701   87.7783   16.0853 N.3     1  UNL1       -0.2695
     18 C          64.0420   87.3144   14.8269 C.3     1  UNL1        0.0939
     19 C          64.2202   88.2627   13.6785 C.3     1  UNL1        0.1095
     20 C          63.1919   86.8300   17.2337 C.3     1  UNL1        0.0769
     21 C          62.4605   85.5361   17.0314 C.3     1  UNL1        0.0437
     22 C          62.9083   84.5801   15.9658 C.ar    1  UNL1       -0.0184
     23 C          64.3365   84.5835   15.5072 C.ar    1  UNL1       -0.0018
     24 C          64.7844   83.6276   14.4417 C.ar    1  UNL1        0.0316
     25 C          63.8040   82.6681   13.8347 C.ar    1  UNL1        0.1674
     26 F          64.2519   81.7121   12.7690 F       1  UNL1       -0.2018
     27 C          62.3759   82.6647   14.2933 C.ar    1  UNL1        0.1671
     28 F          61.3955   81.7052   13.6863 F       1  UNL1       -0.2018
     29 C          61.9281   83.6207   15.3589 C.ar    1  UNL1        0.0277
     30 N          67.2352   94.6514    9.8999 N.am    1  UNL1       -0.3008
     31 C          66.5017   94.9171   11.1810 C.2     1  UNL1        0.2485
     32 O          66.2437   96.3286   11.6186 O.2     1  UNL1       -0.2700
     33 H          67.4045   93.7251    9.6127 H       1  UNL1        0.1497
     34 C          66.7647   96.4747    8.1098 C.3     1  UNL1        0.0230
     35 C          67.7107   95.7970    9.0563 C.3     1  UNL1        0.0898
@<TRIPOS>BOND
     1    34    35    1
     2    35    30    1
     3    30    31   am
     4    31    32    2
     5    31     1    1
     6     1     2   ar
     7     2     3   ar
     8     3     4   ar
     9     4     5   ar
    10     5    14    1
    11    14    15    1
    12    15    16    1
    13    16    17    1
    14    17    20    1
    15    20    21    1
    16    21    22    1
    17    22    23   ar
    18    23    24   ar
    19    24    25   ar
    20    25    26    1
    21    25    27   ar
    22    27    28    1
    23    27    29   ar
    24    17    18    1
    25    18    19    1
    26     5     6   ar
    27     6     7   ar
    28     7     8   ar
    29     8     9   ar
    30     3    10    1
    31    10    11    1
    32    11    12    1
    33    12    13    1
    34     9     1   ar
    35    13     2    1
    36     9     4   ar
    37    19    14    1
    38    29    22   ar
    39    30    33    1
@<TRIPOS>MOLECULE
*****
 35 39 0 0 0
SMALL
GASTEIGER

@<TRIPOS>ATOM
      1 C          62.4465   94.0829   -2.2590 C.ar    1  UNL1        0.0841
      2 C          61.0598   93.5666   -2.0131 C.ar    1  UNL1        0.0430
      3 N          60.9594   93.1782   -0.5677 N.ar    1  UNL1       -0.3271
      4 C          62.2840   93.4545    0.0796 C.ar    1  UNL1        0.1098
      5 C          62.7721   93.2692    1.4858 C.ar    1  UNL1        0.1509
      6 N          64.1792   93.6430    1.8468 N.ar    1  UNL1       -0.2075
      7 C          65.0983   94.2021    0.8015 C.ar    1  UNL1        0.2001
      8 N          64.6103   94.3874   -0.6047 N.ar    1  UNL1       -0.2222
      9 C          63.2032   94.0136   -0.9657 C.ar    1  UNL1        0.1069
     10 C          59.6748   92.6232   -0.0278 C.3     1  UNL1        0.1059
     11 C          58.4906   92.4565   -0.9332 C.3     1  UNL1        0.0249
     12 C          58.5910   92.8449   -2.3786 C.3     1  UNL1        0.0082
     13 C          59.8756   93.3999   -2.9185 C.3     1  UNL1        0.0441
     14 N          61.8529   92.7100    2.5312 N.pl3   1  UNL1       -0.2892
     15 C          60.4919   93.3083    2.7307 C.3     1  UNL1        0.1095
     16 C          59.5729   92.7491    3.7760 C.3     1  UNL1        0.0939
     17 N          60.0148   91.5918    4.6217 N.3     1  UNL1       -0.2695
     18 C          61.3758   90.9936    4.4221 C.3     1  UNL1        0.0939
     19 C          62.2948   91.5527    3.3768 C.3     1  UNL1        0.1095
     20 C          59.0958   91.0326    5.6670 C.3     1  UNL1        0.0769
     21 C          59.0001   89.5488    5.8655 C.3     1  UNL1        0.0437
     22 C          59.3837   88.9420    7.1825 C.ar    1  UNL1       -0.0184
     23 C          59.0764   87.5007    7.4620 C.ar    1  UNL1       -0.0018
     24 C          59.4599   86.8938    8.7790 C.ar    1  UNL1        0.0316
     25 C          60.1509   87.7282    9.8164 C.ar    1  UNL1        0.1674
     26 F          60.5345   87.1213   11.1335 F       1  UNL1       -0.2018
     27 C          60.4582   89.1695    9.5369 C.ar    1  UNL1        0.1671
     28 F          61.1491   90.0040   10.5744 F       1  UNL1       -0.2018
     29 C          60.0746   89.7764    8.2199 C.ar    1  UNL1        0.0277
     30 N          64.3857   94.2474   -3.9802 N.am    1  UNL1       -0.3008
     31 C          62.9825   94.5810   -3.5684 C.2     1  UNL1        0.2485
     32 O          62.1152   95.4129   -4.4662 O.2     1  UNL1       -0.2700
     33 H          64.9550   93.7015   -3.3910 H       1  UNL1        0.1497
     34 C          65.4812   96.1335   -5.3918 C.3     1  UNL1        0.0230
     35 C          64.9217   94.7455   -5.2896 C.3     1  UNL1        0.0898
@<TRIPOS>BOND
     1    34    35    1
     2    35    30    1
     3    30    31   am
     4    31    32    2
     5    31     1    1
     6     1     2   ar
     7     2     3   ar
     8     3     4   ar
     9     4     5   ar
    10     5    14    1
    11    14    15    1
    12    15    16    1
    13    16    17    1
    14    17    20    1
    15    20    21    1
    16    21    22    1
    17    22    23   ar
    18    23    24   ar
    19    24    25   ar
    20    25    26    1
    21    25    27   ar
    22    27    28    1
    23    27    29   ar
    24    17    18    1
    25    18    19    1
    26     5     6   ar
    27     6     7   ar
    28     7     8   ar
    29     8     9   ar
    30     3    10    1
    31    10    11    1
    32    11    12    1
    33    12    13    1
    34     9     1   ar
    35    13     2    1
    36     9     4   ar
    37    19    14    1
    38    29    22   ar
    39    30    33    1
@<TRIPOS>MOLECULE
*****
 35 39 0 0 0
SMALL
GASTEIGER

@<TRIPOS>ATOM
      1 C          62.7812   83.5782   12.4006 C.ar    1  UNL1        0.0841
      2 C          63.5227   84.1747   13.5600 C.ar    1  UNL1        0.0430
      3 N          63.5971   85.6579   13.3490 N.ar    1  UNL1       -0.3271
      4 C          62.9015   85.9781   12.0592 C.ar    1  UNL1        0.1098
      5 C          62.6622   87.2740   11.3427 C.ar    1  UNL1        0.1509
      6 N          61.9185   87.2845   10.0400 N.ar    1  UNL1       -0.2075
      7 C          61.4142   85.9992    9.4538 C.ar    1  UNL1        0.2001
      8 N          61.6536   84.7033   10.1703 N.ar    1  UNL1       -0.2222
      9 C          62.3972   84.6927   11.4730 C.ar    1  UNL1        0.1069
     10 C          64.2886   86.5254   14.3586 C.3     1  UNL1        0.1059
     11 C          64.9057   85.9096   15.5792 C.3     1  UNL1        0.0249
     12 C          64.8313   84.4263   15.7902 C.3     1  UNL1        0.0082
     13 C          64.1398   83.5589   14.7806 C.3     1  UNL1        0.0441
     14 N          63.1664   88.5594   11.9289 N.pl3   1  UNL1       -0.2892
     15 C          63.0354   89.8383   11.1561 C.3     1  UNL1        0.1095
     16 C          63.5397   91.1237   11.7423 C.3     1  UNL1        0.0939
     17 N          64.1749   91.1300   13.1012 N.3     1  UNL1       -0.2695
     18 C          64.3059   89.8510   13.8738 C.3     1  UNL1        0.0939
     19 C          63.8016   88.5657   13.2876 C.3     1  UNL1        0.1095
     20 C          64.6792   92.4153   13.6874 C.3     1  UNL1        0.0769
     21 C          66.0895   92.8557   13.4279 C.3     1  UNL1        0.0437
     22 C          66.4987   93.2892   12.0515 C.ar    1  UNL1       -0.0184
     23 C          66.1886   94.6789   11.5798 C.ar    1  UNL1       -0.0018
     24 C          66.5977   95.1126   10.2034 C.ar    1  UNL1        0.0316
     25 C          67.3169   94.1564    9.2986 C.ar    1  UNL1        0.1674
     26 F          67.7261   94.5900    7.9221 F       1  UNL1       -0.2018
     27 C          67.6270   92.7667    9.7703 C.ar    1  UNL1        0.1671
     28 F          68.3462   91.8105    8.8656 F       1  UNL1       -0.2018
     29 C          67.2178   92.3331   11.1468 C.ar    1  UNL1        0.0277
     30 N          63.1084   81.3715   11.0690 N.am    1  UNL1       -0.3008
     31 C          62.4770   82.1227   12.2033 C.2     1  UNL1        0.2485
     32 O          61.5413   81.4183   13.1406 O.2     1  UNL1       -0.2700
     33 H          63.7225   81.8337   10.4538 H       1  UNL1        0.1497
     34 C          62.7744   79.3367    9.4884 C.3     1  UNL1        0.0230
     35 C          62.8042   79.9159   10.8718 C.3     1  UNL1        0.0898
@<TRIPOS>BOND
     1    34    35    1
     2    35    30    1
     3    30    31   am
     4    31    32    2
     5    31     1    1
     6     1     2   ar
     7     2     3   ar
     8     3     4   ar
     9     4     5   ar
    10     5    14    1
    11    14    15    1
    12    15    16    1
    13    16    17    1
    14    17    20    1
    15    20    21    1
    16    21    22    1
    17    22    23   ar
    18    23    24   ar
    19    24    25   ar
    20    25    26    1
    21    25    27   ar
    22    27    28    1
    23    27    29   ar
    24    17    18    1
    25    18    19    1
    26     5     6   ar
    27     6     7   ar
    28     7     8   ar
    29     8     9   ar
    30     3    10    1
    31    10    11    1
    32    11    12    1
    33    12    13    1
    34     9     1   ar
    35    13     2    1
    36     9     4   ar
    37    19    14    1
    38    29    22   ar
    39    30    33    1
@<TRIPOS>MOLECULE
*****
 35 39 0 0 0
SMALL
GASTEIGER

@<TRIPOS>ATOM
      1 C          62.7555   83.5946   12.3815 C.ar    1  UNL1        0.0841
      2 C          63.5077   84.1897   13.5349 C.ar    1  UNL1        0.0430
      3 N          63.5840   85.6726   13.3228 N.ar    1  UNL1       -0.3271
      4 C          62.8791   85.9940   12.0383 C.ar    1  UNL1        0.1098
      5 C          62.6373   87.2903   11.3233 C.ar    1  UNL1        0.1509
      6 N          61.8835   87.3022   10.0265 N.ar    1  UNL1       -0.2075
      7 C          61.3714   86.0180    9.4448 C.ar    1  UNL1        0.2001
      8 N          61.6132   84.7217   10.1598 N.ar    1  UNL1       -0.2222
      9 C          62.3671   84.7098   11.4566 C.ar    1  UNL1        0.1069
     10 C          64.2856   86.5387   14.3266 C.3     1  UNL1        0.1059
     11 C          64.9108   85.9218   15.5425 C.3     1  UNL1        0.0249
     12 C          64.8344   84.4388   15.7546 C.3     1  UNL1        0.0082
     13 C          64.1328   83.5727   14.7508 C.3     1  UNL1        0.0441
     14 N          63.1494   88.5746   11.9050 N.pl3   1  UNL1       -0.2892
     15 C          63.7404   88.5905   13.2836 C.3     1  UNL1        0.1095
     16 C          64.2524   89.8748   13.8653 C.3     1  UNL1        0.0939
     17 N          64.1734   91.1432   13.0684 N.3     1  UNL1       -0.2695
     18 C          63.5824   91.1273   11.6899 C.3     1  UNL1        0.0939
     19 C          63.0703   89.8429   11.1082 C.3     1  UNL1        0.1095
     20 C          64.6854   92.4275   13.6500 C.3     1  UNL1        0.0769
     21 C          66.1009   92.8542   13.3961 C.3     1  UNL1        0.0437
     22 C          66.5059   93.3375   12.0350 C.ar    1  UNL1       -0.0184
     23 C          67.1607   92.3953   11.0688 C.ar    1  UNL1       -0.0018
     24 C          67.5656   92.8785    9.7078 C.ar    1  UNL1        0.0316
     25 C          67.3158   94.3039    9.3130 C.ar    1  UNL1        0.1674
     26 F          67.7208   94.7871    7.9518 F       1  UNL1       -0.2018
     27 C          66.6610   95.2460   10.2792 C.ar    1  UNL1        0.1671
     28 F          66.4112   96.6714    9.8844 F       1  UNL1       -0.2018
     29 C          66.2561   94.7628   11.6402 C.ar    1  UNL1        0.0277
     30 N          63.0723   81.3849   11.0523 N.am    1  UNL1       -0.3008
     31 C          62.4462   82.1398   12.1872 C.2     1  UNL1        0.2485
     32 O          61.5106   81.4397   13.1279 O.2     1  UNL1       -0.2700
     33 H          63.6863   81.8443   10.4349 H       1  UNL1        0.1497
     34 C          62.7593   79.3418    9.4782 C.3     1  UNL1        0.0230
     35 C          62.7630   79.9300   10.8580 C.3     1  UNL1        0.0898
@<TRIPOS>BOND
     1    34    35    1
     2    35    30    1
     3    30    31   am
     4    31    32    2
     5    31     1    1
     6     1     2   ar
     7     2     3   ar
     8     3     4   ar
     9     4     5   ar
    10     5    14    1
    11    14    15    1
    12    15    16    1
    13    16    17    1
    14    17    20    1
    15    20    21    1
    16    21    22    1
    17    22    23   ar
    18    23    24   ar
    19    24    25   ar
    20    25    26    1
    21    25    27   ar
    22    27    28    1
    23    27    29   ar
    24    17    18    1
    25    18    19    1
    26     5     6   ar
    27     6     7   ar
    28     7     8   ar
    29     8     9   ar
    30     3    10    1
    31    10    11    1
    32    11    12    1
    33    12    13    1
    34     9     1   ar
    35    13     2    1
    36     9     4   ar
    37    19    14    1
    38    29    22   ar
    39    30    33    1
@<TRIPOS>MOLECULE
*****
 35 39 0 0 0
SMALL
GASTEIGER

@<TRIPOS>ATOM
      1 C          65.6287   92.2372   14.5637 C.ar    1  UNL1        0.0841
      2 C          64.6176   91.2223   15.0085 C.ar    1  UNL1        0.0430
      3 N          63.8146   90.8120   13.8098 N.ar    1  UNL1       -0.3271
      4 C          64.3294   91.5733   12.6243 C.ar    1  UNL1        0.1098
      5 C          63.9221   91.5782   11.1807 C.ar    1  UNL1        0.1509
      6 N          64.6360   92.4640   10.2030 N.ar    1  UNL1       -0.2075
      7 C          65.7571   93.3448   10.6689 C.ar    1  UNL1        0.2001
      8 N          66.1645   93.3398   12.1125 N.ar    1  UNL1       -0.2222
      9 C          65.4506   92.4541   13.0902 C.ar    1  UNL1        0.1069
     10 C          62.7184   89.7982   13.9527 C.3     1  UNL1        0.1059
     11 C          62.4252   89.1947   15.2943 C.3     1  UNL1        0.0249
     12 C          63.2282   89.6050   16.4929 C.3     1  UNL1        0.0082
     13 C          64.3245   90.6188   16.3500 C.3     1  UNL1        0.0441
     14 N          62.8009   90.6974   10.7147 N.pl3   1  UNL1       -0.2892
     15 C          61.3782   91.1419   10.8833 C.3     1  UNL1        0.1095
     16 C          60.2570   90.2611   10.4173 C.3     1  UNL1        0.0939
     17 N          60.5586   88.9358    9.7827 N.3     1  UNL1       -0.2695
     18 C          61.9812   88.4913    9.6142 C.3     1  UNL1        0.0939
     19 C          63.1024   89.3721   10.0801 C.3     1  UNL1        0.1095
     20 C          59.4374   88.0549    9.3167 C.3     1  UNL1        0.0769
     21 C          59.7397   86.7679    8.6079 C.3     1  UNL1        0.0437
     22 C          60.9571   85.9746    8.9804 C.ar    1  UNL1       -0.0184
     23 C          61.9078   85.5154    7.9150 C.ar    1  UNL1       -0.0018
     24 C          63.1252   84.7221    8.2873 C.ar    1  UNL1        0.0316
     25 C          63.3917   84.3879    9.7251 C.ar    1  UNL1        0.1674
     26 F          64.6091   83.5946   10.0975 F       1  UNL1       -0.2018
     27 C          62.4409   84.8471   10.7905 C.ar    1  UNL1        0.1671
     28 F          62.7075   84.5130   12.2284 F       1  UNL1       -0.2018
     29 C          61.2236   85.6405   10.4181 C.ar    1  UNL1        0.0277
     30 N          67.8707   93.5223   14.8320 N.am    1  UNL1       -0.3008
     31 C          66.6403   92.9159   15.4389 C.2     1  UNL1        0.2485
     32 O          66.4216   92.9883   16.9212 O.2     1  UNL1       -0.2700
     33 H          68.0143   93.4748   13.8591 H       1  UNL1        0.1497
     34 C          69.9299   93.3902   16.4105 C.3     1  UNL1        0.0230
     35 C          68.8823   94.2011   15.7071 C.3     1  UNL1        0.0898
@<TRIPOS>BOND
     1    34    35    1
     2    35    30    1
     3    30    31   am
     4    31    32    2
     5    31     1    1
     6     1     2   ar
     7     2     3   ar
     8     3     4   ar
     9     4     5   ar
    10     5    14    1
    11    14    15    1
    12    15    16    1
    13    16    17    1
    14    17    20    1
    15    20    21    1
    16    21    22    1
    17    22    23   ar
    18    23    24   ar
    19    24    25   ar
    20    25    26    1
    21    25    27   ar
    22    27    28    1
    23    27    29   ar
    24    17    18    1
    25    18    19    1
    26     5     6   ar
    27     6     7   ar
    28     7     8   ar
    29     8     9   ar
    30     3    10    1
    31    10    11    1
    32    11    12    1
    33    12    13    1
    34     9     1   ar
    35    13     2    1
    36     9     4   ar
    37    19    14    1
    38    29    22   ar
    39    30    33    1
@<TRIPOS>MOLECULE
*****
 35 39 0 0 0
SMALL
GASTEIGER

@<TRIPOS>ATOM
      1 C          59.9110   88.5657    7.8867 C.ar    1  UNL1        0.0841
      2 C          60.3343   89.0340    9.2475 C.ar    1  UNL1        0.0430
      3 N          61.0955   87.9210    9.9046 N.ar    1  UNL1       -0.3271
      4 C          61.1426   86.7649    8.9500 C.ar    1  UNL1        0.1098
      5 C          61.7575   85.4008    9.0552 C.ar    1  UNL1        0.1509
      6 N          61.6404   84.4352    7.9133 N.ar    1  UNL1       -0.2075
      7 C          60.9083   84.8337    6.6662 C.ar    1  UNL1        0.2001
      8 N          60.2934   86.1978    6.5610 N.ar    1  UNL1       -0.2222
      9 C          60.4105   87.1634    7.7029 C.ar    1  UNL1        0.1069
     10 C          61.6474   88.1040   11.2873 C.3     1  UNL1        0.1059
     11 C          61.4381   89.4000   12.0128 C.3     1  UNL1        0.0249
     12 C          60.6769   90.5130   11.3557 C.3     1  UNL1        0.0082
     13 C          60.1250   90.3300    9.9730 C.3     1  UNL1        0.0441
     14 N          62.4897   85.0023   10.3023 N.pl3   1  UNL1       -0.2892
     15 C          63.7549   84.2022   10.2060 C.3     1  UNL1        0.1095
     16 C          64.4869   83.8037   11.4531 C.3     1  UNL1        0.0939
     17 N          63.9538   84.2052   12.7964 N.3     1  UNL1       -0.2695
     18 C          62.6886   85.0053   12.8927 C.3     1  UNL1        0.0939
     19 C          61.9566   85.4038   11.6456 C.3     1  UNL1        0.1095
     20 C          64.6858   83.8067   14.0435 C.3     1  UNL1        0.0769
     21 C          64.1346   84.1787   15.3881 C.3     1  UNL1        0.0437
     22 C          63.8989   85.6202   15.7294 C.ar    1  UNL1       -0.0184
     23 C          63.1039   85.9819   16.9489 C.ar    1  UNL1       -0.0018
     24 C          62.8682   87.4233   17.2903 C.ar    1  UNL1        0.0316
     25 C          63.4275   88.5032   16.4121 C.ar    1  UNL1        0.1674
     26 F          63.1918   89.9447   16.7535 F       1  UNL1       -0.2018
     27 C          64.2225   88.1415   15.1926 C.ar    1  UNL1        0.1671
     28 F          64.7818   89.2213   14.3145 F       1  UNL1       -0.2018
     29 C          64.4582   86.7000   14.8513 C.ar    1  UNL1        0.0277
     30 N          59.8015   90.4322    6.0828 N.am    1  UNL1       -0.3008
     31 C          59.1259   89.3604    6.8857 C.2     1  UNL1        0.2485
     32 O          57.6650   89.0832    6.6875 O.2     1  UNL1       -0.2700
     33 H          60.7603   90.6141    6.2128 H       1  UNL1        0.1497
     34 C          59.6989   92.2770    4.2562 C.3     1  UNL1        0.0230
     35 C          59.0164   91.2268    5.0817 C.3     1  UNL1        0.0898
@<TRIPOS>BOND
     1    34    35    1
     2    35    30    1
     3    30    31   am
     4    31    32    2
     5    31     1    1
     6     1     2   ar
     7     2     3   ar
     8     3     4   ar
     9     4     5   ar
    10     5    14    1
    11    14    15    1
    12    15    16    1
    13    16    17    1
    14    17    20    1
    15    20    21    1
    16    21    22    1
    17    22    23   ar
    18    23    24   ar
    19    24    25   ar
    20    25    26    1
    21    25    27   ar
    22    27    28    1
    23    27    29   ar
    24    17    18    1
    25    18    19    1
    26     5     6   ar
    27     6     7   ar
    28     7     8   ar
    29     8     9   ar
    30     3    10    1
    31    10    11    1
    32    11    12    1
    33    12    13    1
    34     9     1   ar
    35    13     2    1
    36     9     4   ar
    37    19    14    1
    38    29    22   ar
    39    30    33    1
@<TRIPOS>MOLECULE
*****
 35 39 0 0 0
SMALL
GASTEIGER

@<TRIPOS>ATOM
      1 C          61.2991   86.4585    9.1594 C.ar    1  UNL1        0.0841
      2 C          60.9765   87.8804    9.5120 C.ar    1  UNL1        0.0430
      3 N          61.6398   88.1954   10.8200 N.ar    1  UNL1       -0.3271
      4 C          62.3722   86.9682   11.2757 C.ar    1  UNL1        0.1098
      5 C          63.2037   86.6896   12.4927 C.ar    1  UNL1        0.1509
      6 N          63.8246   85.3375   12.6833 N.ar    1  UNL1       -0.2075
      7 C          63.6141   84.2641   11.6570 C.ar    1  UNL1        0.2001
      8 N          62.7826   84.5427   10.4400 N.ar    1  UNL1       -0.2222
      9 C          62.1617   85.8948   10.2494 C.ar    1  UNL1        0.1069
     10 C          61.4910   89.5589   11.4271 C.3     1  UNL1        0.1059
     11 C          60.6791   90.6074   10.7262 C.3     1  UNL1        0.0249
     12 C          60.0159   90.2924    9.4182 C.3     1  UNL1        0.0082
     13 C          60.1646   88.9289    8.8111 C.3     1  UNL1        0.0441
     14 N          63.4142   87.7631   13.5191 N.pl3   1  UNL1       -0.2892
     15 C          63.5313   87.4008   14.9700 C.3     1  UNL1        0.1095
     16 C          63.7418   88.4742   15.9963 C.3     1  UNL1        0.0939
     17 N          63.8353   89.9099   15.5718 N.3     1  UNL1       -0.2695
     18 C          63.7182   90.2721   14.1209 C.3     1  UNL1        0.0939
     19 C          63.5077   89.1986   13.0946 C.3     1  UNL1        0.1095
     20 C          64.0459   90.9833   16.5981 C.3     1  UNL1        0.0769
     21 C          64.6814   92.2837   16.2039 C.3     1  UNL1        0.0437
     22 C          66.0745   92.2994   15.6478 C.ar    1  UNL1       -0.0184
     23 C          67.2332   92.6401   16.5373 C.ar    1  UNL1       -0.0018
     24 C          68.6262   92.6559   15.9813 C.ar    1  UNL1        0.0316
     25 C          68.8605   92.3309   14.5357 C.ar    1  UNL1        0.1674
     26 F          70.2536   92.3466   13.9797 F       1  UNL1       -0.2018
     27 C          67.7017   91.9902   13.6463 C.ar    1  UNL1        0.1671
     28 F          67.9360   91.6652   12.2008 F       1  UNL1       -0.2018
     29 C          66.3087   91.9744   14.2024 C.ar    1  UNL1        0.0277
     30 N          61.8082   84.8906    7.1513 N.am    1  UNL1       -0.3008
     31 C          60.8397   85.7286    7.9321 C.2     1  UNL1        0.2485
     32 O          59.4117   85.8367    7.4856 O.2     1  UNL1       -0.2700
     33 H          62.7454   84.8196    7.4443 H       1  UNL1        0.1497
     34 C          62.1743   84.2044    4.6724 C.3     1  UNL1        0.0230
     35 C          61.3488   84.1607    5.9240 C.3     1  UNL1        0.0898
@<TRIPOS>BOND
     1    34    35    1
     2    35    30    1
     3    30    31   am
     4    31    32    2
     5    31     1    1
     6     1     2   ar
     7     2     3   ar
     8     3     4   ar
     9     4     5   ar
    10     5    14    1
    11    14    15    1
    12    15    16    1
    13    16    17    1
    14    17    20    1
    15    20    21    1
    16    21    22    1
    17    22    23   ar
    18    23    24   ar
    19    24    25   ar
    20    25    26    1
    21    25    27   ar
    22    27    28    1
    23    27    29   ar
    24    17    18    1
    25    18    19    1
    26     5     6   ar
    27     6     7   ar
    28     7     8   ar
    29     8     9   ar
    30     3    10    1
    31    10    11    1
    32    11    12    1
    33    12    13    1
    34     9     1   ar
    35    13     2    1
    36     9     4   ar
    37    19    14    1
    38    29    22   ar
    39    30    33    1
