@<TRIPOS>MOLECULE
*****
 35 37 0 0 0
SMALL
GASTEIGER

@<TRIPOS>ATOM
      1 C          60.5344   87.4183    9.8661 C.3     1  UNL1        0.1017
      2 C          59.7959   86.6309    8.8246 C.3     1  UNL1        0.0394
      3 C          59.2223   87.3261    7.6255 C.3     1  UNL1        0.0739
      4 N          59.3871   88.8087    7.4680 N.3     1  UNL1       -0.2704
      5 C          60.1256   89.5961    8.5095 C.3     1  UNL1        0.1037
      6 C          60.6992   88.9010    9.7086 C.3     1  UNL1        0.1490
      7 C          62.2259   85.7374   10.8970 C.2     1  UNL1        0.2488
      8 O          62.7703   85.4467    9.5299 O.2     1  UNL1       -0.2700
      9 N          61.1080   86.7232   11.0652 N.am    1  UNL1       -0.2999
     10 H          60.7507   86.9140   11.9625 H       1  UNL1        0.1498
     11 C          63.4426   85.8418   13.1903 C.ar    1  UNL1        0.1443
     12 C          64.0162   85.1466   14.3893 C.ar    1  UNL1        0.0520
     13 C          63.9467   83.6519   14.4942 C.ar    1  UNL1        0.0553
     14 N          64.5203   82.9567   15.6934 N.pl3   1  UNL1       -0.3563
     15 C          63.3036   82.8523   13.4001 C.ar    1  UNL1        0.0709
     16 CL         63.2341   81.3576   13.5051 Cl      1  UNL1       -0.0810
     17 C          62.7300   83.5475   12.2011 C.ar    1  UNL1        0.0202
     18 C          62.7995   85.0422   12.0962 C.ar    1  UNL1        0.0882
     19 H          64.9424   83.4815   16.4115 H       1  UNL1        0.1424
     20 H          64.4747   81.9757   15.7623 H       1  UNL1        0.1424
     21 C          64.1818   88.1338   14.1650 C.3     1  UNL1        0.2525
     22 O          63.5121   87.3365   13.0853 O.3     1  UNL1       -0.4712
     23 O          61.4376   89.6884   10.7501 O.3     1  UNL1       -0.3505
     24 C          62.7917   90.2551   10.4417 C.3     1  UNL1        0.1741
     25 C          58.8135   89.5038    6.2690 C.3     1  UNL1        0.0760
     26 C          59.5870   90.5982    5.5952 C.3     1  UNL1        0.0646
     27 C          58.8673   91.6381    4.7885 C.3     1  UNL1        0.2068
     28 O          59.6040   92.8492    4.2980 O.3     1  UNL1       -0.4754
     29 C          60.2539   92.8353    2.9462 C.ar    1  UNL1        0.1387
     30 C          61.7080   92.4905    2.8167 C.ar    1  UNL1        0.0392
     31 C          62.3580   92.4766    1.4649 C.ar    1  UNL1        0.0327
     32 C          61.5538   92.8075    0.2426 C.ar    1  UNL1        0.1403
     33 F          62.2038   92.7936   -1.1092 F       1  UNL1       -0.2042
     34 C          60.0998   93.1523    0.3721 C.ar    1  UNL1        0.0327
     35 C          59.4498   93.1662    1.7240 C.ar    1  UNL1        0.0392
@<TRIPOS>BOND
     1    21    22    1
     2    22    11    1
     3    11    12   ar
     4    12    13   ar
     5    13    14    1
     6    13    15   ar
     7    15    16    1
     8    15    17   ar
     9    17    18   ar
    10    18     7    1
    11     7     8    2
    12     7     9   am
    13     9     1    1
    14     1     2    1
    15     2     3    1
    16     3     4    1
    17     4    25    1
    18    25    26    1
    19    26    27    1
    20    27    28    1
    21    28    29    1
    22    29    30   ar
    23    30    31   ar
    24    31    32   ar
    25    32    33    1
    26    32    34   ar
    27    34    35   ar
    28     4     5    1
    29     5     6    1
    30     6    23    1
    31    23    24    1
    32    18    11   ar
    33     6     1    1
    34    35    29   ar
    35    14    19    1
    36    14    20    1
    37     9    10    1
@<TRIPOS>MOLECULE
*****
 35 37 0 0 0
SMALL
GASTEIGER

@<TRIPOS>ATOM
      1 C          61.4154   89.7672   11.0965 C.3     1  UNL1        0.1017
      2 C          61.8588   89.6045    9.6728 C.3     1  UNL1        0.0394
      3 C          61.0403   88.7826    8.7217 C.3     1  UNL1        0.0739
      4 N          59.7785   88.1234    9.1943 N.3     1  UNL1       -0.2704
      5 C          59.3351   88.2862   10.6180 C.3     1  UNL1        0.1037
      6 C          60.1536   89.1080   11.5691 C.3     1  UNL1        0.1490
      7 C          63.2775   89.9312   12.9009 C.2     1  UNL1        0.2488
      8 O          63.5028   88.4515   12.8029 O.2     1  UNL1       -0.2700
      9 N          62.2339   90.5891   12.0477 N.am    1  UNL1       -0.2999
     10 H          62.0860   91.5603   12.1119 H       1  UNL1        0.1498
     11 C          63.8157   90.6970   15.3245 C.ar    1  UNL1        0.1443
     12 C          64.6341   91.5189   16.2756 C.ar    1  UNL1        0.0520
     13 C          65.7328   92.3969   15.7542 C.ar    1  UNL1        0.0553
     14 N          66.5513   93.2189   16.7053 N.pl3   1  UNL1       -0.3563
     15 C          66.0131   92.4531   14.2817 C.ar    1  UNL1        0.0709
     16 CL         67.1119   93.3311   13.7603 Cl      1  UNL1       -0.0810
     17 C          65.1947   91.6312   13.3306 C.ar    1  UNL1        0.0202
     18 C          64.0960   90.7531   13.8520 C.ar    1  UNL1        0.0882
     19 H          66.3673   93.1820   17.6718 H       1  UNL1        0.1424
     20 H          67.2724   93.7952   16.3631 H       1  UNL1        0.1424
     21 C          63.0404   88.6792   16.7658 C.3     1  UNL1        0.2525
     22 O          62.7170   89.8190   15.8459 O.3     1  UNL1       -0.4712
     23 O          59.7102   89.2707   12.9928 O.3     1  UNL1       -0.3505
     24 C          58.3413   88.8196   13.4083 C.3     1  UNL1        0.1741
     25 C          58.9601   87.3016    8.2432 C.3     1  UNL1        0.0760
     26 C          59.6388   86.4605    7.2031 C.3     1  UNL1        0.0646
     27 C          60.6350   85.4173    7.6151 C.3     1  UNL1        0.2068
     28 O          61.9784   85.8291    8.1402 O.3     1  UNL1       -0.4754
     29 C          62.5136   85.2113    9.3979 C.ar    1  UNL1        0.1387
     30 C          63.5031   84.0868    9.3188 C.ar    1  UNL1        0.0392
     31 C          64.0383   83.4690   10.5765 C.ar    1  UNL1        0.0327
     32 C          63.5840   83.9757   11.9133 C.ar    1  UNL1        0.1403
     33 F          64.1193   83.3579   13.1710 F       1  UNL1       -0.2042
     34 C          62.5945   85.1003   11.9923 C.ar    1  UNL1        0.0327
     35 C          62.0593   85.7181   10.7345 C.ar    1  UNL1        0.0392
@<TRIPOS>BOND
     1    21    22    1
     2    22    11    1
     3    11    12   ar
     4    12    13   ar
     5    13    14    1
     6    13    15   ar
     7    15    16    1
     8    15    17   ar
     9    17    18   ar
    10    18     7    1
    11     7     8    2
    12     7     9   am
    13     9     1    1
    14     1     2    1
    15     2     3    1
    16     3     4    1
    17     4    25    1
    18    25    26    1
    19    26    27    1
    20    27    28    1
    21    28    29    1
    22    29    30   ar
    23    30    31   ar
    24    31    32   ar
    25    32    33    1
    26    32    34   ar
    27    34    35   ar
    28     4     5    1
    29     5     6    1
    30     6    23    1
    31    23    24    1
    32    18    11   ar
    33     6     1    1
    34    35    29   ar
    35    14    19    1
    36    14    20    1
    37     9    10    1
@<TRIPOS>MOLECULE
*****
 35 37 0 0 0
SMALL
GASTEIGER

@<TRIPOS>ATOM
      1 C          63.4874   89.9074   13.0721 C.3     1  UNL1        0.1017
      2 C          63.8789   91.2873   12.6333 C.3     1  UNL1        0.0394
      3 C          64.7792   92.1214   13.4957 C.3     1  UNL1        0.0739
      4 N          65.2881   91.5755   14.7969 N.3     1  UNL1       -0.2704
      5 C          64.8967   90.1956   15.2356 C.3     1  UNL1        0.1037
      6 C          63.9964   89.3615   14.3733 C.3     1  UNL1        0.1490
      7 C          62.4050   89.4185   10.7614 C.2     1  UNL1        0.2488
      8 O          63.1233   90.5978   10.1754 O.2     1  UNL1       -0.2700
      9 N          62.5871   89.0733   12.2097 N.am    1  UNL1       -0.2999
     10 H          62.1157   88.2993   12.5943 H       1  UNL1        0.1498
     11 C          61.4613   87.0959   10.0794 C.ar    1  UNL1        0.1443
     12 C          60.5610   86.2619    9.2171 C.ar    1  UNL1        0.0520
     13 C          59.7040   86.9163    8.1743 C.ar    1  UNL1        0.0553
     14 N          58.8036   86.0821    7.3119 N.pl3   1  UNL1       -0.3563
     15 C          59.7473   88.4047    7.9939 C.ar    1  UNL1        0.0709
     16 CL         58.8903   89.0591    6.9512 Cl      1  UNL1       -0.0810
     17 C          60.6477   89.2388    8.8563 C.ar    1  UNL1        0.0202
     18 C          61.5047   88.5844    9.8990 C.ar    1  UNL1        0.0882
     19 H          58.7751   85.1052    7.4304 H       1  UNL1        0.1424
     20 H          58.2411   86.5116    6.6276 H       1  UNL1        0.1424
     21 C          62.4011   84.9456   11.1942 C.3     1  UNL1        0.2525
     22 O          62.3183   86.4415   11.1221 O.3     1  UNL1       -0.4712
     23 O          63.6050   87.9816   14.8120 O.3     1  UNL1       -0.3505
     24 C          64.4777   86.8103   14.4709 C.3     1  UNL1        0.1741
     25 C          66.1885   92.4096   15.6592 C.3     1  UNL1        0.0760
     26 C          67.6775   92.2993   15.5158 C.3     1  UNL1        0.0646
     27 C          68.3328   92.6428   14.2109 C.3     1  UNL1        0.2068
     28 O          68.0252   91.8385   12.9827 O.3     1  UNL1       -0.4754
     29 C          67.8349   92.5268   11.6636 C.ar    1  UNL1        0.1387
     30 C          68.5141   91.9962   10.4359 C.ar    1  UNL1        0.0392
     31 C          68.3238   92.6846    9.1168 C.ar    1  UNL1        0.0327
     32 C          67.4544   93.9036    9.0254 C.ar    1  UNL1        0.1403
     33 F          67.2641   94.5919    7.7064 F       1  UNL1       -0.2042
     34 C          66.7753   94.4341   10.2532 C.ar    1  UNL1        0.0327
     35 C          66.9656   93.7457   11.5723 C.ar    1  UNL1        0.0392
@<TRIPOS>BOND
     1    21    22    1
     2    22    11    1
     3    11    12   ar
     4    12    13   ar
     5    13    14    1
     6    13    15   ar
     7    15    16    1
     8    15    17   ar
     9    17    18   ar
    10    18     7    1
    11     7     8    2
    12     7     9   am
    13     9     1    1
    14     1     2    1
    15     2     3    1
    16     3     4    1
    17     4    25    1
    18    25    26    1
    19    26    27    1
    20    27    28    1
    21    28    29    1
    22    29    30   ar
    23    30    31   ar
    24    31    32   ar
    25    32    33    1
    26    32    34   ar
    27    34    35   ar
    28     4     5    1
    29     5     6    1
    30     6    23    1
    31    23    24    1
    32    18    11   ar
    33     6     1    1
    34    35    29   ar
    35    14    19    1
    36    14    20    1
    37     9    10    1
@<TRIPOS>MOLECULE
*****
 35 37 0 0 0
SMALL
GASTEIGER

@<TRIPOS>ATOM
      1 C          63.9375   89.9792   14.1602 C.3     1  UNL1        0.1017
      2 C          64.1343   88.5820   13.6511 C.3     1  UNL1        0.0394
      3 C          63.9695   87.4153   14.5795 C.3     1  UNL1        0.0739
      4 N          63.6078   87.6459   16.0168 N.3     1  UNL1       -0.2704
      5 C          63.4110   89.0431   16.5259 C.3     1  UNL1        0.1037
      6 C          63.5759   90.2097   15.5976 C.3     1  UNL1        0.1490
      7 C          65.4093   91.8796   13.1743 C.2     1  UNL1        0.2488
      8 O          66.5515   91.4468   14.0450 O.2     1  UNL1       -0.2700
      9 N          64.1023   91.1458   13.2319 N.am    1  UNL1       -0.2999
     10 H          63.3527   91.4299   12.6604 H       1  UNL1        0.1498
     11 C          65.2229   92.9053   10.7945 C.ar    1  UNL1        0.1443
     12 C          65.3877   94.0720    9.8662 C.ar    1  UNL1        0.0520
     13 C          65.9037   95.3796   10.3894 C.ar    1  UNL1        0.0553
     14 N          66.0685   96.5463    9.4611 N.pl3   1  UNL1       -0.3563
     15 C          66.2549   95.5207   11.8409 C.ar    1  UNL1        0.0709
     16 CL         66.7709   96.8283   12.3640 Cl      1  UNL1       -0.0810
     17 C          66.0901   94.3540   12.7691 C.ar    1  UNL1        0.0202
     18 C          65.5741   93.0463   12.2459 C.ar    1  UNL1        0.0882
     19 H          65.8380   96.4538    8.5084 H       1  UNL1        0.1424
     20 H          66.4072   97.4046    9.8044 H       1  UNL1        0.1424
     21 C          63.2358   91.4065   10.0497 C.3     1  UNL1        0.2525
     22 O          64.7069   91.5976   10.2713 O.3     1  UNL1       -0.4712
     23 O          63.3791   91.6069   16.1067 O.3     1  UNL1       -0.3505
     24 C          64.5056   92.3206   16.7934 C.3     1  UNL1        0.1741
     25 C          63.4430   86.4793   16.9451 C.3     1  UNL1        0.0760
     26 C          62.2409   85.5900   16.8260 C.3     1  UNL1        0.0646
     27 C          62.2067   84.5106   15.7849 C.3     1  UNL1        0.2068
     28 O          63.4732   84.0868   15.1021 O.3     1  UNL1       -0.4754
     29 C          63.4106   83.2876   13.8343 C.ar    1  UNL1        0.1387
     30 C          62.5024   82.0974   13.7421 C.ar    1  UNL1        0.0392
     31 C          62.4397   81.2982   12.4744 C.ar    1  UNL1        0.0327
     32 C          63.2853   81.6892   11.2987 C.ar    1  UNL1        0.1403
     33 F          63.2226   80.8900   10.0309 F       1  UNL1       -0.2042
     34 C          64.1935   82.8795   11.3908 C.ar    1  UNL1        0.0327
     35 C          64.2561   83.6787   12.6587 C.ar    1  UNL1        0.0392
@<TRIPOS>BOND
     1    21    22    1
     2    22    11    1
     3    11    12   ar
     4    12    13   ar
     5    13    14    1
     6    13    15   ar
     7    15    16    1
     8    15    17   ar
     9    17    18   ar
    10    18     7    1
    11     7     8    2
    12     7     9   am
    13     9     1    1
    14     1     2    1
    15     2     3    1
    16     3     4    1
    17     4    25    1
    18    25    26    1
    19    26    27    1
    20    27    28    1
    21    28    29    1
    22    29    30   ar
    23    30    31   ar
    24    31    32   ar
    25    32    33    1
    26    32    34   ar
    27    34    35   ar
    28     4     5    1
    29     5     6    1
    30     6    23    1
    31    23    24    1
    32    18    11   ar
    33     6     1    1
    34    35    29   ar
    35    14    19    1
    36    14    20    1
    37     9    10    1
@<TRIPOS>MOLECULE
*****
 35 37 0 0 0
SMALL
GASTEIGER

@<TRIPOS>ATOM
      1 C          63.5196   87.4579   13.2425 C.3     1  UNL1        0.1017
      2 C          64.2637   87.8011   14.4989 C.3     1  UNL1        0.0394
      3 C          64.6668   89.2207   14.7677 C.3     1  UNL1        0.0739
      4 N          64.3259   90.2970   13.7802 N.3     1  UNL1       -0.2704
      5 C          63.5818   89.9538   12.5238 C.3     1  UNL1        0.1037
      6 C          63.1786   88.5343   12.2549 C.3     1  UNL1        0.1490
      7 C          63.9813   84.9097   13.4513 C.2     1  UNL1        0.2488
      8 O          65.2493   85.2006   14.1978 O.2     1  UNL1       -0.2700
      9 N          63.1164   86.0383   12.9736 N.am    1  UNL1       -0.2999
     10 H          62.2841   85.8474   12.4836 H       1  UNL1        0.1498
     11 C          63.1100   82.6172   14.3088 C.ar    1  UNL1        0.1443
     12 C          62.7068   81.1977   14.0398 C.ar    1  UNL1        0.0520
     13 C          62.7717   80.6511   12.6445 C.ar    1  UNL1        0.0553
     14 N          62.3684   79.2315   12.3755 N.pl3   1  UNL1       -0.3563
     15 C          63.2397   81.5240   11.5180 C.ar    1  UNL1        0.0709
     16 CL         63.3046   80.9774   10.1227 Cl      1  UNL1       -0.0810
     17 C          63.6429   82.9435   11.7870 C.ar    1  UNL1        0.0202
     18 C          63.5781   83.4901   13.1824 C.ar    1  UNL1        0.0882
     19 H          62.0612   78.6586   13.1149 H       1  UNL1        0.1424
     20 H          62.4110   78.8727   11.4597 H       1  UNL1        0.1424
     21 C          62.2589   84.4097   15.9858 C.3     1  UNL1        0.2525
     22 O          63.0451   83.1638   15.7041 O.3     1  UNL1       -0.4712
     23 O          62.4346   88.1911   10.9985 O.3     1  UNL1       -0.3505
     24 C          60.9450   88.3575   10.9398 C.3     1  UNL1        0.1741
     25 C          64.7291   91.7165   14.0491 C.3     1  UNL1        0.0760
     26 C          66.1073   92.0215   14.5566 C.3     1  UNL1        0.0646
     27 C          66.6880   93.3923   14.3725 C.3     1  UNL1        0.2068
     28 O          66.0171   94.3745   13.4587 O.3     1  UNL1       -0.4754
     29 C          66.3799   94.4142   12.0038 C.ar    1  UNL1        0.1387
     30 C          66.3113   95.7084   11.2487 C.ar    1  UNL1        0.0392
     31 C          66.6741   95.7480    9.7938 C.ar    1  UNL1        0.0327
     32 C          67.1057   94.4933    9.0940 C.ar    1  UNL1        0.1403
     33 F          67.4685   94.5330    7.6391 F       1  UNL1       -0.2042
     34 C          67.1744   93.1991    9.8491 C.ar    1  UNL1        0.0327
     35 C          66.8115   93.1595   11.3041 C.ar    1  UNL1        0.0392
@<TRIPOS>BOND
     1    21    22    1
     2    22    11    1
     3    11    12   ar
     4    12    13   ar
     5    13    14    1
     6    13    15   ar
     7    15    16    1
     8    15    17   ar
     9    17    18   ar
    10    18     7    1
    11     7     8    2
    12     7     9   am
    13     9     1    1
    14     1     2    1
    15     2     3    1
    16     3     4    1
    17     4    25    1
    18    25    26    1
    19    26    27    1
    20    27    28    1
    21    28    29    1
    22    29    30   ar
    23    30    31   ar
    24    31    32   ar
    25    32    33    1
    26    32    34   ar
    27    34    35   ar
    28     4     5    1
    29     5     6    1
    30     6    23    1
    31    23    24    1
    32    18    11   ar
    33     6     1    1
    34    35    29   ar
    35    14    19    1
    36    14    20    1
    37     9    10    1
@<TRIPOS>MOLECULE
*****
 35 37 0 0 0
SMALL
GASTEIGER

@<TRIPOS>ATOM
      1 C          60.6236   87.4632    9.8714 C.3     1  UNL1        0.1017
      2 C          59.8671   86.6844    8.8365 C.3     1  UNL1        0.0394
      3 C          59.2758   87.3890    7.6515 C.3     1  UNL1        0.0739
      4 N          59.4411   88.8723    7.5016 N.3     1  UNL1       -0.2704
      5 C          60.1976   89.6511    8.5365 C.3     1  UNL1        0.1037
      6 C          60.7889   88.9466    9.7214 C.3     1  UNL1        0.1490
      7 C          62.3427   85.7882   10.8660 C.2     1  UNL1        0.2488
      8 O          62.8792   85.5222    9.4907 O.2     1  UNL1       -0.2700
      9 N          61.2149   86.7587   11.0563 N.am    1  UNL1       -0.2999
     10 H          60.8628   86.9333   11.9590 H       1  UNL1        0.1498
     11 C          63.1843   83.6058   11.9968 C.ar    1  UNL1        0.1443
     12 C          63.7755   82.9013   13.1818 C.ar    1  UNL1        0.0520
     13 C          64.1165   83.6749   14.4209 C.ar    1  UNL1        0.0553
     14 N          64.7077   82.9704   15.6059 N.pl3   1  UNL1       -0.3563
     15 C          63.8661   85.1528   14.4751 C.ar    1  UNL1        0.0709
     16 CL         64.2071   85.9263   15.7142 Cl      1  UNL1       -0.0810
     17 C          63.2749   85.8572   13.2901 C.ar    1  UNL1        0.0202
     18 C          62.9340   85.0837   12.0510 C.ar    1  UNL1        0.0882
     19 H          64.8720   82.0003   15.5703 H       1  UNL1        0.1424
     20 H          64.9315   83.4780   16.4192 H       1  UNL1        0.1424
     21 C          63.3021   81.4118   10.6103 C.3     1  UNL1        0.2525
     22 O          62.8433   82.8322   10.7577 O.3     1  UNL1       -0.4712
     23 O          61.5454   89.7254   10.7564 O.3     1  UNL1       -0.3505
     24 C          62.7843   90.4781   10.3713 C.3     1  UNL1        0.1741
     25 C          58.8498   89.5768    6.3167 C.3     1  UNL1        0.0760
     26 C          59.7072   90.4712    5.4712 C.3     1  UNL1        0.0646
     27 C          59.2194   91.8381    5.0919 C.3     1  UNL1        0.2068
     28 O          59.1701   92.2430    3.6484 O.3     1  UNL1       -0.4754
     29 C          60.3977   92.7866    2.9796 C.ar    1  UNL1        0.1387
     30 C          61.7099   92.0751    3.1277 C.ar    1  UNL1        0.0392
     31 C          62.9375   92.6188    2.4589 C.ar    1  UNL1        0.0327
     32 C          62.8529   93.8739    1.6418 C.ar    1  UNL1        0.1403
     33 F          64.0805   94.4176    0.9730 F       1  UNL1       -0.2042
     34 C          61.5407   94.5854    1.4937 C.ar    1  UNL1        0.0327
     35 C          60.3131   94.0417    2.1626 C.ar    1  UNL1        0.0392
@<TRIPOS>BOND
     1    21    22    1
     2    22    11    1
     3    11    12   ar
     4    12    13   ar
     5    13    14    1
     6    13    15   ar
     7    15    16    1
     8    15    17   ar
     9    17    18   ar
    10    18     7    1
    11     7     8    2
    12     7     9   am
    13     9     1    1
    14     1     2    1
    15     2     3    1
    16     3     4    1
    17     4    25    1
    18    25    26    1
    19    26    27    1
    20    27    28    1
    21    28    29    1
    22    29    30   ar
    23    30    31   ar
    24    31    32   ar
    25    32    33    1
    26    32    34   ar
    27    34    35   ar
    28     4     5    1
    29     5     6    1
    30     6    23    1
    31    23    24    1
    32    18    11   ar
    33     6     1    1
    34    35    29   ar
    35    14    19    1
    36    14    20    1
    37     9    10    1
@<TRIPOS>MOLECULE
*****
 35 37 0 0 0
SMALL
GASTEIGER

@<TRIPOS>ATOM
      1 C          64.0610   89.9976   14.3476 C.3     1  UNL1        0.1017
      2 C          64.2335   88.6153   13.7913 C.3     1  UNL1        0.0394
      3 C          63.9236   87.4200   14.6430 C.3     1  UNL1        0.0739
      4 N          63.4413   87.6071   16.0509 N.3     1  UNL1       -0.2704
      5 C          63.2688   88.9894   16.6072 C.3     1  UNL1        0.1037
      6 C          63.5786   90.1846   15.7556 C.3     1  UNL1        0.1490
      7 C          65.7866   91.6687   13.3579 C.2     1  UNL1        0.2488
      8 O          66.8926   90.9494   14.0716 O.2     1  UNL1       -0.2700
      9 N          64.3708   91.1929   13.4959 N.am    1  UNL1       -0.2999
     10 H          63.6450   91.6650   13.0275 H       1  UNL1        0.1498
     11 C          66.3721   94.1913   13.1483 C.ar    1  UNL1        0.1443
     12 C          66.6819   95.3865   12.2967 C.ar    1  UNL1        0.0520
     13 C          66.7161   95.2545   10.8029 C.ar    1  UNL1        0.0553
     14 N          67.0259   96.4498    9.9512 N.pl3   1  UNL1       -0.3563
     15 C          66.4404   93.9272   10.1608 C.ar    1  UNL1        0.0709
     16 CL         66.4745   93.7952    8.6670 Cl      1  UNL1       -0.0810
     17 C          66.1306   92.7320   11.0125 C.ar    1  UNL1        0.0202
     18 C          66.0965   92.8641   12.5062 C.ar    1  UNL1        0.0882
     19 H          67.2068   97.3209   10.3726 H       1  UNL1        0.1424
     20 H          67.0483   96.3632    8.9707 H       1  UNL1        0.1424
     21 C          67.5088   93.8687   15.4622 C.3     1  UNL1        0.2525
     22 O          66.3380   94.3233   14.6421 O.3     1  UNL1       -0.4712
     23 O          63.4061   91.5670   16.3119 O.3     1  UNL1       -0.3505
     24 C          64.5726   92.2763   16.9333 C.3     1  UNL1        0.1741
     25 C          63.1314   86.4118   16.9026 C.3     1  UNL1        0.0760
     26 C          63.4947   85.0368   16.4259 C.3     1  UNL1        0.0646
     27 C          62.4535   84.1639   15.7903 C.3     1  UNL1        0.2068
     28 O          61.8903   84.5245   14.4476 O.3     1  UNL1       -0.4754
     29 C          62.5848   84.0730   13.1971 C.ar    1  UNL1        0.1387
     30 C          62.4788   84.8899   11.9436 C.ar    1  UNL1        0.0392
     31 C          63.1732   84.4384   10.6931 C.ar    1  UNL1        0.0327
     32 C          63.9737   83.1698   10.6961 C.ar    1  UNL1        0.1403
     33 F          64.6682   82.7182    9.4456 F       1  UNL1       -0.2042
     34 C          64.0798   82.3528   11.9496 C.ar    1  UNL1        0.0327
     35 C          63.3852   82.8045   13.2002 C.ar    1  UNL1        0.0392
@<TRIPOS>BOND
     1    21    22    1
     2    22    11    1
     3    11    12   ar
     4    12    13   ar
     5    13    14    1
     6    13    15   ar
     7    15    16    1
     8    15    17   ar
     9    17    18   ar
    10    18     7    1
    11     7     8    2
    12     7     9   am
    13     9     1    1
    14     1     2    1
    15     2     3    1
    16     3     4    1
    17     4    25    1
    18    25    26    1
    19    26    27    1
    20    27    28    1
    21    28    29    1
    22    29    30   ar
    23    30    31   ar
    24    31    32   ar
    25    32    33    1
    26    32    34   ar
    27    34    35   ar
    28     4     5    1
    29     5     6    1
    30     6    23    1
    31    23    24    1
    32    18    11   ar
    33     6     1    1
    34    35    29   ar
    35    14    19    1
    36    14    20    1
    37     9    10    1
@<TRIPOS>MOLECULE
*****
 35 37 0 0 0
SMALL
GASTEIGER

@<TRIPOS>ATOM
      1 C          60.9966   86.7154    8.9122 C.3     1  UNL1        0.1017
      2 C          60.9881   88.1122    9.4588 C.3     1  UNL1        0.0394
      3 C          60.2714   89.2028    8.7192 C.3     1  UNL1        0.0739
      4 N          59.5632   88.8965    7.4329 N.3     1  UNL1       -0.2704
      5 C          59.5716   87.4997    6.8862 C.3     1  UNL1        0.1037
      6 C          60.2883   86.4091    7.6258 C.3     1  UNL1        0.1490
      7 C          61.7663   85.6446   11.1507 C.2     1  UNL1        0.2488
      8 O          61.1025   86.7549   11.9100 O.2     1  UNL1       -0.2700
      9 N          61.7133   85.6249    9.6518 N.am    1  UNL1       -0.2999
     10 H          62.1489   84.8961    9.1534 H       1  UNL1        0.1498
     11 C          63.3884   84.8948   13.0366 C.ar    1  UNL1        0.1443
     12 C          64.1050   83.8043   13.7761 C.ar    1  UNL1        0.0520
     13 C          63.9164   82.3729   13.3693 C.ar    1  UNL1        0.0553
     14 N          64.6331   81.2822   14.1089 N.pl3   1  UNL1       -0.3563
     15 C          63.0110   82.0320   12.2230 C.ar    1  UNL1        0.0709
     16 CL         62.8223   80.6006   11.8162 Cl      1  UNL1       -0.0810
     17 C          62.2943   83.1226   11.4835 C.ar    1  UNL1        0.0202
     18 C          62.4830   84.5540   11.8903 C.ar    1  UNL1        0.0882
     19 H          65.2273   81.5059   14.8613 H       1  UNL1        0.1424
     20 H          64.5093   80.3428   13.8419 H       1  UNL1        0.1424
     21 C          64.3302   86.6564   14.6979 C.3     1  UNL1        0.2525
     22 O          63.5770   86.3262   13.4434 O.3     1  UNL1       -0.4712
     23 O          60.2968   85.0123    7.0791 O.3     1  UNL1       -0.3505
     24 C          61.4668   84.5289    6.2747 C.3     1  UNL1        0.1741
     25 C          58.8465   89.9870    6.6933 C.3     1  UNL1        0.0760
     26 C          59.4343   90.5506    5.4336 C.3     1  UNL1        0.0646
     27 C          58.7422   91.6742    4.7203 C.3     1  UNL1        0.2068
     28 O          59.5289   92.8619    4.2508 O.3     1  UNL1       -0.4754
     29 C          60.1963   92.8361    2.9077 C.ar    1  UNL1        0.1387
     30 C          59.4077   93.1545    1.6721 C.ar    1  UNL1        0.0392
     31 C          60.0752   93.1287    0.3290 C.ar    1  UNL1        0.0327
     32 C          61.5313   92.7845    0.2216 C.ar    1  UNL1        0.1403
     33 F          62.1987   92.7587   -1.1215 F       1  UNL1       -0.2042
     34 C          62.3198   92.4662    1.4572 C.ar    1  UNL1        0.0327
     35 C          61.6523   92.4920    2.8003 C.ar    1  UNL1        0.0392
@<TRIPOS>BOND
     1    21    22    1
     2    22    11    1
     3    11    12   ar
     4    12    13   ar
     5    13    14    1
     6    13    15   ar
     7    15    16    1
     8    15    17   ar
     9    17    18   ar
    10    18     7    1
    11     7     8    2
    12     7     9   am
    13     9     1    1
    14     1     2    1
    15     2     3    1
    16     3     4    1
    17     4    25    1
    18    25    26    1
    19    26    27    1
    20    27    28    1
    21    28    29    1
    22    29    30   ar
    23    30    31   ar
    24    31    32   ar
    25    32    33    1
    26    32    34   ar
    27    34    35   ar
    28     4     5    1
    29     5     6    1
    30     6    23    1
    31    23    24    1
    32    18    11   ar
    33     6     1    1
    34    35    29   ar
    35    14    19    1
    36    14    20    1
    37     9    10    1
@<TRIPOS>MOLECULE
*****
 35 37 0 0 0
SMALL
GASTEIGER

@<TRIPOS>ATOM
      1 C          60.8414   92.7066    2.7275 C.3     1  UNL1        0.1017
      2 C          59.3543   92.7945    2.9026 C.3     1  UNL1        0.0394
      3 C          58.6857   92.0523    4.0217 C.3     1  UNL1        0.0739
      4 N          59.5043   91.2222    4.9655 N.3     1  UNL1       -0.2704
      5 C          60.9914   91.1343    4.7904 C.3     1  UNL1        0.1037
      6 C          61.6600   91.8765    3.6714 C.3     1  UNL1        0.1490
      7 C          61.4636   92.9017    0.2126 C.2     1  UNL1        0.2488
      8 O          60.7487   91.6125   -0.0643 O.2     1  UNL1       -0.2700
      9 N          61.5100   93.4488    1.6085 N.am    1  UNL1       -0.2999
     10 H          61.9792   94.2950    1.7902 H       1  UNL1        0.1498
     11 C          63.4594   94.3053   -0.6801 C.ar    1  UNL1        0.1443
     12 C          64.1280   95.0475   -1.7991 C.ar    1  UNL1        0.0520
     13 C          63.4694   95.1283   -3.1444 C.ar    1  UNL1        0.0553
     14 N          64.1380   95.8705   -4.2634 N.pl3   1  UNL1       -0.3563
     15 C          62.1422   94.4669   -3.3707 C.ar    1  UNL1        0.0709
     16 CL         61.4836   94.5478   -4.7159 Cl      1  UNL1       -0.0810
     17 C          61.4737   93.7248   -2.2517 C.ar    1  UNL1        0.0202
     18 C          62.1323   93.6439   -0.9064 C.ar    1  UNL1        0.0882
     19 H          65.0091   96.3046   -4.1149 H       1  UNL1        0.1424
     20 H          63.7058   95.9236   -5.1463 H       1  UNL1        0.1424
     21 C          65.3473   93.3848    0.8491 C.3     1  UNL1        0.2525
     22 O          64.1180   94.2245    0.6651 O.3     1  UNL1       -0.4712
     23 O          63.1471   91.7886    3.4963 O.3     1  UNL1       -0.3505
     24 C          63.7942   90.4612    3.2333 C.3     1  UNL1        0.1741
     25 C          58.8357   90.4801    6.0845 C.3     1  UNL1        0.0760
     26 C          59.4145   89.1873    6.5783 C.3     1  UNL1        0.0646
     27 C          59.8517   89.0587    8.0074 C.3     1  UNL1        0.2068
     28 O          59.5828   87.7910    8.7628 O.3     1  UNL1       -0.4754
     29 C          60.6979   86.8221    9.0231 C.ar    1  UNL1        0.1387
     30 C          61.4087   86.1704    7.8742 C.ar    1  UNL1        0.0392
     31 C          62.5238   85.2016    8.1346 C.ar    1  UNL1        0.0327
     32 C          62.9282   84.8844    9.5439 C.ar    1  UNL1        0.1403
     33 F          64.0433   83.9156    9.8042 F       1  UNL1       -0.2042
     34 C          62.2173   85.5362   10.6928 C.ar    1  UNL1        0.0327
     35 C          61.1022   86.5051   10.4323 C.ar    1  UNL1        0.0392
@<TRIPOS>BOND
     1    21    22    1
     2    22    11    1
     3    11    12   ar
     4    12    13   ar
     5    13    14    1
     6    13    15   ar
     7    15    16    1
     8    15    17   ar
     9    17    18   ar
    10    18     7    1
    11     7     8    2
    12     7     9   am
    13     9     1    1
    14     1     2    1
    15     2     3    1
    16     3     4    1
    17     4    25    1
    18    25    26    1
    19    26    27    1
    20    27    28    1
    21    28    29    1
    22    29    30   ar
    23    30    31   ar
    24    31    32   ar
    25    32    33    1
    26    32    34   ar
    27    34    35   ar
    28     4     5    1
    29     5     6    1
    30     6    23    1
    31    23    24    1
    32    18    11   ar
    33     6     1    1
    34    35    29   ar
    35    14    19    1
    36    14    20    1
    37     9    10    1
