@<TRIPOS>MOLECULE
*****
 29 32 0 0 0
SMALL
GASTEIGER

@<TRIPOS>ATOM
      1 C          63.3064   84.9145   13.7594 C.ar    1  UNL1        0.0536
      2 C          64.0734   85.8192   14.6777 C.ar    1  UNL1        0.0045
      3 C          64.2116   87.2767   14.3513 C.ar    1  UNL1        0.0002
      4 C          63.5828   87.8295   13.1067 C.ar    1  UNL1        0.0030
      5 C          63.7210   89.2871   12.7804 C.ar    1  UNL1        0.0369
      6 C          63.0921   89.8399   11.5358 C.ar    1  UNL1        0.1386
      7 C          62.3252   88.9351   10.6175 C.ar    1  UNL1        0.0369
      8 C          62.1870   87.4776   10.9439 C.ar    1  UNL1        0.0031
      9 C          62.8158   86.9248   12.1885 C.ar    1  UNL1        0.0003
     10 C          62.6776   85.4673   12.5148 C.ar    1  UNL1        0.0045
     11 C          62.8807   79.4076    9.6677 C.3     1  UNL1        0.0001
     12 C          62.9526   80.4199   10.7722 C.3     1  UNL1        0.0034
     13 C          63.0908   81.8774   10.4459 C.3     1  UNL1        0.0216
     14 C          63.1627   82.8898   11.5504 C.3     1  UNL1        0.0937
     15 N          63.0964   82.4446   12.9813 N.am    1  UNL1       -0.2761
     16 C          63.1682   83.4569   14.0858 C.2     1  UNL1        0.2490
     17 O          63.1019   83.0118   15.5167 O.2     1  UNL1       -0.2699
     18 C          62.9582   80.9870   13.3076 C.3     1  UNL1        0.0937
     19 C          62.8863   79.9747   12.2031 C.3     1  UNL1        0.0216
     20 O          63.2303   91.2974   11.2094 O.3     1  UNL1       -0.4754
     21 C          64.5928   91.9051   11.0531 C.3     1  UNL1        0.2068
     22 C          65.3118   92.4523   12.2504 C.3     1  UNL1        0.0646
     23 C          66.6209   93.1641   12.0786 C.3     1  UNL1        0.0759
     24 N          66.7828   94.1840   10.9905 N.3     1  UNL1       -0.2726
     25 C          66.2509   95.5737   11.1800 C.3     1  UNL1        0.0721
     26 C          66.4129   96.5935   10.0920 C.3     1  UNL1        0.0174
     27 C          67.1068   96.2236    8.8146 C.3     1  UNL1        0.0029
     28 C          67.6387   94.8340    8.6252 C.3     1  UNL1        0.0174
     29 C          67.4767   93.8142    9.7131 C.3     1  UNL1        0.0721
@<TRIPOS>BOND
     1    11    12    1
     2    12    13    1
     3    13    14    1
     4    14    15    1
     5    15    16   am
     6    16    17    2
     7    16     1    1
     8     1     2   ar
     9     2     3   ar
    10     3     4   ar
    11     4     5   ar
    12     5     6   ar
    13     6    20    1
    14    20    21    1
    15    21    22    1
    16    22    23    1
    17    23    24    1
    18    24    25    1
    19    25    26    1
    20    26    27    1
    21    27    28    1
    22    28    29    1
    23     6     7   ar
    24     7     8   ar
    25     8     9   ar
    26     9    10   ar
    27    15    18    1
    28    18    19    1
    29    19    12    1
    30    10     1   ar
    31     9     4   ar
    32    29    24    1
@<TRIPOS>MOLECULE
*****
 29 32 0 0 0
SMALL
GASTEIGER

@<TRIPOS>ATOM
      1 C          63.4637   85.2097   13.9782 C.ar    1  UNL1        0.0536
      2 C          64.2376   86.0884   14.9157 C.ar    1  UNL1        0.0045
      3 C          64.3989   87.5488   14.6137 C.ar    1  UNL1        0.0002
      4 C          63.7863   88.1304   13.3742 C.ar    1  UNL1        0.0030
      5 C          63.9476   89.5909   13.0722 C.ar    1  UNL1        0.0369
      6 C          63.3349   90.1726   11.8327 C.ar    1  UNL1        0.1386
      7 C          62.5610   89.2938   10.8952 C.ar    1  UNL1        0.0369
      8 C          62.3997   87.8334   11.1972 C.ar    1  UNL1        0.0031
      9 C          63.0124   87.2517   12.4367 C.ar    1  UNL1        0.0003
     10 C          62.8511   85.7914   12.7387 C.ar    1  UNL1        0.0045
     11 C          62.9094   79.7837    9.7947 C.3     1  UNL1        0.0001
     12 C          63.0077   80.7751   10.9160 C.3     1  UNL1        0.0034
     13 C          63.1690   82.2354   10.6140 C.3     1  UNL1        0.0216
     14 C          63.2672   83.2269   11.7354 C.3     1  UNL1        0.0937
     15 N          63.2042   82.7579   13.1588 N.am    1  UNL1       -0.2761
     16 C          63.3024   83.7492   14.2802 C.2     1  UNL1        0.2490
     17 O          63.2393   83.2802   15.7036 O.2     1  UNL1       -0.2699
     18 C          63.0429   81.2974   13.4608 C.3     1  UNL1        0.0937
     19 C          62.9446   80.3061   12.3394 C.3     1  UNL1        0.0216
     20 O          63.4962   91.6329   11.5307 O.3     1  UNL1       -0.4754
     21 C          64.6359   92.1004   10.6747 C.3     1  UNL1        0.2068
     22 C          65.7001   92.9816   11.2585 C.3     1  UNL1        0.0646
     23 C          66.9247   92.3718   11.8735 C.3     1  UNL1        0.0759
     24 N          67.1258   92.4289   13.3589 N.3     1  UNL1       -0.2726
     25 C          65.9404   92.5237   14.2731 C.3     1  UNL1        0.0721
     26 C          66.1415   92.5808   15.7585 C.3     1  UNL1        0.0174
     27 C          67.5281   92.5430   16.3296 C.3     1  UNL1        0.0029
     28 C          68.7134   92.4482   15.4154 C.3     1  UNL1        0.0174
     29 C          68.5123   92.3911   13.9301 C.3     1  UNL1        0.0721
@<TRIPOS>BOND
     1    11    12    1
     2    12    13    1
     3    13    14    1
     4    14    15    1
     5    15    16   am
     6    16    17    2
     7    16     1    1
     8     1     2   ar
     9     2     3   ar
    10     3     4   ar
    11     4     5   ar
    12     5     6   ar
    13     6    20    1
    14    20    21    1
    15    21    22    1
    16    22    23    1
    17    23    24    1
    18    24    25    1
    19    25    26    1
    20    26    27    1
    21    27    28    1
    22    28    29    1
    23     6     7   ar
    24     7     8   ar
    25     8     9   ar
    26     9    10   ar
    27    15    18    1
    28    18    19    1
    29    19    12    1
    30    10     1   ar
    31     9     4   ar
    32    29    24    1
@<TRIPOS>MOLECULE
*****
 29 32 0 0 0
SMALL
GASTEIGER

@<TRIPOS>ATOM
      1 C          62.5319   87.3089   11.7244 C.ar    1  UNL1        0.0536
      2 C          62.7311   88.7840   11.5394 C.ar    1  UNL1        0.0045
      3 C          62.0210   89.5034   10.4311 C.ar    1  UNL1        0.0002
      4 C          61.1118   88.7477    9.5079 C.ar    1  UNL1        0.0030
      5 C          60.4018   89.4672    8.3997 C.ar    1  UNL1        0.0369
      6 C          59.4926   88.7115    7.4765 C.ar    1  UNL1        0.1386
      7 C          59.2934   87.2363    7.6616 C.ar    1  UNL1        0.0369
      8 C          60.0035   86.5169    8.7698 C.ar    1  UNL1        0.0031
      9 C          60.9127   87.2726    9.6930 C.ar    1  UNL1        0.0003
     10 C          61.6227   86.5532   10.8012 C.ar    1  UNL1        0.0045
     11 C          63.1872   80.5931   13.0355 C.3     1  UNL1        0.0001
     12 C          63.2009   82.0921   12.9848 C.3     1  UNL1        0.0034
     13 C          62.4909   82.8116   11.8765 C.3     1  UNL1        0.0216
     14 C          62.5045   84.3107   11.8258 C.3     1  UNL1        0.0937
     15 N          63.2282   85.0903   12.8834 N.am    1  UNL1       -0.2761
     16 C          63.2419   86.5894   12.8327 C.2     1  UNL1        0.2490
     17 O          63.9656   87.3690   13.8903 O.2     1  UNL1       -0.2699
     18 C          63.9383   84.3708   13.9917 C.3     1  UNL1        0.0937
     19 C          63.9246   82.8718   14.0424 C.3     1  UNL1        0.0216
     20 O          58.7826   89.4310    6.3682 O.3     1  UNL1       -0.4754
     21 C          59.5044   90.4743    5.5679 C.3     1  UNL1        0.2068
     22 C          58.7277   91.5251    4.8314 C.3     1  UNL1        0.0646
     23 C          59.4251   92.7476    4.3128 C.3     1  UNL1        0.0759
     24 N          60.1651   92.6926    3.0091 N.3     1  UNL1       -0.2726
     25 C          59.4450   92.9809    1.7252 C.3     1  UNL1        0.0721
     26 C          60.1850   92.9259    0.4217 C.3     1  UNL1        0.0174
     27 C          61.6450   92.5827    0.4019 C.3     1  UNL1        0.0029
     28 C          62.3651   92.2944    1.6858 C.3     1  UNL1        0.0174
     29 C          61.6251   92.3494    2.9894 C.3     1  UNL1        0.0721
@<TRIPOS>BOND
     1    11    12    1
     2    12    13    1
     3    13    14    1
     4    14    15    1
     5    15    16   am
     6    16    17    2
     7    16     1    1
     8     1     2   ar
     9     2     3   ar
    10     3     4   ar
    11     4     5   ar
    12     5     6   ar
    13     6    20    1
    14    20    21    1
    15    21    22    1
    16    22    23    1
    17    23    24    1
    18    24    25    1
    19    25    26    1
    20    26    27    1
    21    27    28    1
    22    28    29    1
    23     6     7   ar
    24     7     8   ar
    25     8     9   ar
    26     9    10   ar
    27    15    18    1
    28    18    19    1
    29    19    12    1
    30    10     1   ar
    31     9     4   ar
    32    29    24    1
@<TRIPOS>MOLECULE
*****
 29 32 0 0 0
SMALL
GASTEIGER

@<TRIPOS>ATOM
      1 C          63.2727   86.2748   12.5049 C.ar    1  UNL1        0.0536
      2 C          63.8963   86.0290   13.8468 C.ar    1  UNL1        0.0045
      3 C          64.3406   87.1868   14.6906 C.ar    1  UNL1        0.0002
      4 C          64.1614   88.5903   14.1926 C.ar    1  UNL1        0.0030
      5 C          64.6058   89.7481   15.0365 C.ar    1  UNL1        0.0369
      6 C          64.4266   91.1516   14.5385 C.ar    1  UNL1        0.1386
      7 C          63.8030   91.3973   13.1966 C.ar    1  UNL1        0.0369
      8 C          63.3586   90.2396   12.3527 C.ar    1  UNL1        0.0031
      9 C          63.5378   88.8361   12.8507 C.ar    1  UNL1        0.0003
     10 C          63.0935   87.6783   12.0069 C.ar    1  UNL1        0.0045
     11 C          62.7360   79.5808   13.9721 C.3     1  UNL1        0.0001
     12 C          62.7590   80.9649   13.3943 C.3     1  UNL1        0.0034
     13 C          63.2034   82.1225   14.2382 C.3     1  UNL1        0.0216
     14 C          63.2265   83.5067   13.6604 C.3     1  UNL1        0.0937
     15 N          62.8052   83.7330   12.2387 N.am    1  UNL1       -0.2761
     16 C          62.8283   85.1171   11.6610 C.2     1  UNL1        0.2490
     17 O          62.4069   85.3434   10.2393 O.2     1  UNL1       -0.2699
     18 C          62.3608   82.5753   11.3948 C.3     1  UNL1        0.0937
     19 C          62.3377   81.1912   11.9726 C.3     1  UNL1        0.0216
     20 O          64.8710   92.3093   15.3824 O.3     1  UNL1       -0.4754
     21 C          66.3284   92.6506   15.4798 C.3     1  UNL1        0.2068
     22 C          67.1008   93.0018   14.2429 C.3     1  UNL1        0.0646
     23 C          66.4369   93.7657   13.1358 C.3     1  UNL1        0.0759
     24 N          66.9372   93.6328   11.7279 N.3     1  UNL1       -0.2726
     25 C          67.5787   92.3539   11.2775 C.3     1  UNL1        0.0721
     26 C          68.0789   92.2211    9.8696 C.3     1  UNL1        0.0174
     27 C          67.9376   93.3671    8.9122 C.3     1  UNL1        0.0029
     28 C          67.2960   94.6459    9.3625 C.3     1  UNL1        0.0174
     29 C          66.7958   94.7788   10.7704 C.3     1  UNL1        0.0721
@<TRIPOS>BOND
     1    11    12    1
     2    12    13    1
     3    13    14    1
     4    14    15    1
     5    15    16   am
     6    16    17    2
     7    16     1    1
     8     1     2   ar
     9     2     3   ar
    10     3     4   ar
    11     4     5   ar
    12     5     6   ar
    13     6    20    1
    14    20    21    1
    15    21    22    1
    16    22    23    1
    17    23    24    1
    18    24    25    1
    19    25    26    1
    20    26    27    1
    21    27    28    1
    22    28    29    1
    23     6     7   ar
    24     7     8   ar
    25     8     9   ar
    26     9    10   ar
    27    15    18    1
    28    18    19    1
    29    19    12    1
    30    10     1   ar
    31     9     4   ar
    32    29    24    1
@<TRIPOS>MOLECULE
*****
 29 32 0 0 0
SMALL
GASTEIGER

@<TRIPOS>ATOM
      1 C          62.4951   87.1122   11.6120 C.ar    1  UNL1        0.0536
      2 C          63.1465   86.3933   12.7561 C.ar    1  UNL1        0.0045
      3 C          63.9104   87.1662   13.7900 C.ar    1  UNL1        0.0002
      4 C          64.0229   88.6579   13.6799 C.ar    1  UNL1        0.0030
      5 C          64.7869   89.4308   14.7140 C.ar    1  UNL1        0.0369
      6 C          64.8994   90.9225   14.6039 C.ar    1  UNL1        0.1386
      7 C          64.2480   91.6413   13.4597 C.ar    1  UNL1        0.0369
      8 C          63.4841   90.8685   12.4258 C.ar    1  UNL1        0.0031
      9 C          63.3716   89.3768   12.5359 C.ar    1  UNL1        0.0003
     10 C          62.6077   88.6039   11.5019 C.ar    1  UNL1        0.0045
     11 C          58.5941   89.2469    6.3704 C.3     1  UNL1        0.0001
     12 C          59.3783   88.5200    7.4223 C.3     1  UNL1        0.0034
     13 C          60.1422   89.2929    8.4562 C.3     1  UNL1        0.0216
     14 C          60.9265   88.5660    9.5082 C.3     1  UNL1        0.0937
     15 N          60.9469   87.0662    9.5261 N.am    1  UNL1       -0.2761
     16 C          61.7312   86.3393   10.5780 C.2     1  UNL1        0.2490
     17 O          61.7516   84.8396   10.5959 O.2     1  UNL1       -0.2699
     18 C          60.1830   86.2934    8.4921 C.3     1  UNL1        0.0937
     19 C          59.3987   87.0203    7.4402 C.3     1  UNL1        0.0216
     20 O          65.6633   91.6953   15.6378 O.3     1  UNL1       -0.4754
     21 C          67.0921   92.0763   15.3855 C.3     1  UNL1        0.2068
     22 C          67.4160   93.4014   14.7618 C.3     1  UNL1        0.0646
     23 C          66.4998   93.9883   13.7292 C.3     1  UNL1        0.0759
     24 N          66.8034   93.8131   12.2707 N.3     1  UNL1       -0.2726
     25 C          67.3491   92.5089   11.7696 C.3     1  UNL1        0.0721
     26 C          67.6526   92.3338   10.3111 C.3     1  UNL1        0.0174
     27 C          67.4105   93.4629    9.3538 C.3     1  UNL1        0.0029
     28 C          66.8648   94.7671    9.8549 C.3     1  UNL1        0.0174
     29 C          66.5612   94.9422   11.3134 C.3     1  UNL1        0.0721
@<TRIPOS>BOND
     1    11    12    1
     2    12    13    1
     3    13    14    1
     4    14    15    1
     5    15    16   am
     6    16    17    2
     7    16     1    1
     8     1     2   ar
     9     2     3   ar
    10     3     4   ar
    11     4     5   ar
    12     5     6   ar
    13     6    20    1
    14    20    21    1
    15    21    22    1
    16    22    23    1
    17    23    24    1
    18    24    25    1
    19    25    26    1
    20    26    27    1
    21    27    28    1
    22    28    29    1
    23     6     7   ar
    24     7     8   ar
    25     8     9   ar
    26     9    10   ar
    27    15    18    1
    28    18    19    1
    29    19    12    1
    30    10     1   ar
    31     9     4   ar
    32    29    24    1
@<TRIPOS>MOLECULE
*****
 29 32 0 0 0
SMALL
GASTEIGER

@<TRIPOS>ATOM
      1 C          64.1564   84.5312   13.1286 C.ar    1  UNL1        0.0536
      2 C          64.8524   84.7828   14.4333 C.ar    1  UNL1        0.0045
      3 C          64.9207   86.1736   14.9909 C.ar    1  UNL1        0.0002
      4 C          64.2930   87.3128   14.2438 C.ar    1  UNL1        0.0030
      5 C          64.3613   88.7037   14.8015 C.ar    1  UNL1        0.0369
      6 C          63.7336   89.8429   14.0544 C.ar    1  UNL1        0.1386
      7 C          63.0376   89.5913   12.7496 C.ar    1  UNL1        0.0369
      8 C          62.9693   88.2005   12.1920 C.ar    1  UNL1        0.0031
      9 C          63.5970   87.0612   12.9391 C.ar    1  UNL1        0.0003
     10 C          63.5287   85.6704   12.3815 C.ar    1  UNL1        0.0045
     11 C          59.7755   79.3869   14.3911 C.3     1  UNL1        0.0001
     12 C          60.8536   80.3252   13.9361 C.3     1  UNL1        0.0034
     13 C          60.9219   81.7160   14.4937 C.3     1  UNL1        0.0216
     14 C          62.0001   82.6544   14.0387 C.3     1  UNL1        0.0937
     15 N          63.0099   82.2020   13.0260 N.am    1  UNL1       -0.2761
     16 C          64.0880   83.1403   12.5710 C.2     1  UNL1        0.2490
     17 O          65.0979   82.6879   11.5583 O.2     1  UNL1       -0.2699
     18 C          62.9416   80.8111   12.4683 C.3     1  UNL1        0.0937
     19 C          61.8635   79.8728   12.9234 C.3     1  UNL1        0.0216
     20 O          63.8019   91.2337   14.6120 O.3     1  UNL1       -0.4754
     21 C          65.1267   91.9250   14.7430 C.3     1  UNL1        0.2068
     22 C          66.0298   92.0476   13.5517 C.3     1  UNL1        0.0646
     23 C          66.2789   93.3918   12.9346 C.3     1  UNL1        0.0759
     24 N          66.8665   93.4878   11.5577 N.3     1  UNL1       -0.2726
     25 C          66.7276   94.7565   10.7698 C.3     1  UNL1        0.0721
     26 C          67.3153   94.8525    9.3930 C.3     1  UNL1        0.0174
     27 C          68.0418   93.6796    8.8043 C.3     1  UNL1        0.0029
     28 C          68.1807   92.4109    9.5923 C.3     1  UNL1        0.0174
     29 C          67.5930   92.3150   10.9690 C.3     1  UNL1        0.0721
@<TRIPOS>BOND
     1    11    12    1
     2    12    13    1
     3    13    14    1
     4    14    15    1
     5    15    16   am
     6    16    17    2
     7    16     1    1
     8     1     2   ar
     9     2     3   ar
    10     3     4   ar
    11     4     5   ar
    12     5     6   ar
    13     6    20    1
    14    20    21    1
    15    21    22    1
    16    22    23    1
    17    23    24    1
    18    24    25    1
    19    25    26    1
    20    26    27    1
    21    27    28    1
    22    28    29    1
    23     6     7   ar
    24     7     8   ar
    25     8     9   ar
    26     9    10   ar
    27    15    18    1
    28    18    19    1
    29    19    12    1
    30    10     1   ar
    31     9     4   ar
    32    29    24    1
@<TRIPOS>MOLECULE
*****
 29 32 0 0 0
SMALL
GASTEIGER

@<TRIPOS>ATOM
      1 C          57.9809   94.8953   -2.6255 C.ar    1  UNL1        0.0536
      2 C          58.4116   93.4856   -2.9036 C.ar    1  UNL1        0.0045
      3 C          59.2528   92.7476   -1.9048 C.ar    1  UNL1        0.0002
      4 C          59.6633   93.4191   -0.6280 C.ar    1  UNL1        0.0030
      5 C          60.5046   92.6810    0.3708 C.ar    1  UNL1        0.0369
      6 C          60.9152   93.3526    1.6477 C.ar    1  UNL1        0.1386
      7 C          60.4845   94.7623    1.9258 C.ar    1  UNL1        0.0369
      8 C          59.6433   95.5004    0.9270 C.ar    1  UNL1        0.0031
      9 C          59.2327   94.8288   -0.3498 C.ar    1  UNL1        0.0003
     10 C          58.3915   95.5668   -1.3486 C.ar    1  UNL1        0.0045
     11 C          51.2593   96.3338   -2.6594 C.3     1  UNL1        0.0001
     12 C          52.7294   96.1587   -2.9007 C.3     1  UNL1        0.0034
     13 C          53.5706   95.4206   -1.9019 C.3     1  UNL1        0.0216
     14 C          55.0407   95.2455   -2.1431 C.3     1  UNL1        0.0937
     15 N          55.6696   95.8085   -3.3831 N.am    1  UNL1       -0.2761
     16 C          57.1397   95.6334   -3.6243 C.2     1  UNL1        0.2490
     17 O          57.7685   96.1964   -4.8642 O.2     1  UNL1       -0.2699
     18 C          54.8283   96.5467   -4.3818 C.3     1  UNL1        0.0937
     19 C          53.3583   96.7218   -4.1406 C.3     1  UNL1        0.0216
     20 O          61.7564   92.6145    2.6465 O.3     1  UNL1       -0.4754
     21 C          63.2103   92.3713    2.3686 C.3     1  UNL1        0.2068
     22 C          64.0779   93.4924    1.8785 C.3     1  UNL1        0.0646
     23 C          64.5534   93.5059    0.4560 C.3     1  UNL1        0.0759
     24 N          63.7212   94.1603   -0.6068 N.3     1  UNL1       -0.2726
     25 C          63.3808   93.4105   -1.8605 C.3     1  UNL1        0.0721
     26 C          62.5486   94.0649   -2.9232 C.3     1  UNL1        0.0174
     27 C          62.0569   95.4691   -2.7321 C.3     1  UNL1        0.0029
     28 C          62.3974   96.2189   -1.4784 C.3     1  UNL1        0.0174
     29 C          63.2295   95.5645   -0.4157 C.3     1  UNL1        0.0721
@<TRIPOS>BOND
     1    11    12    1
     2    12    13    1
     3    13    14    1
     4    14    15    1
     5    15    16   am
     6    16    17    2
     7    16     1    1
     8     1     2   ar
     9     2     3   ar
    10     3     4   ar
    11     4     5   ar
    12     5     6   ar
    13     6    20    1
    14    20    21    1
    15    21    22    1
    16    22    23    1
    17    23    24    1
    18    24    25    1
    19    25    26    1
    20    26    27    1
    21    27    28    1
    22    28    29    1
    23     6     7   ar
    24     7     8   ar
    25     8     9   ar
    26     9    10   ar
    27    15    18    1
    28    18    19    1
    29    19    12    1
    30    10     1   ar
    31     9     4   ar
    32    29    24    1
@<TRIPOS>MOLECULE
*****
 29 32 0 0 0
SMALL
GASTEIGER

@<TRIPOS>ATOM
      1 C          72.8879   78.6803   12.1435 C.ar    1  UNL1        0.0536
      2 C          73.6330   77.5871   11.4366 C.ar    1  UNL1        0.0045
      3 C          73.4370   76.1582   11.8484 C.ar    1  UNL1        0.0002
      4 C          72.4959   75.8224   12.9672 C.ar    1  UNL1        0.0030
      5 C          72.3000   74.3933   13.3790 C.ar    1  UNL1        0.0369
      6 C          71.3589   74.0575   14.4977 C.ar    1  UNL1        0.1386
      7 C          70.6137   75.1507   15.2046 C.ar    1  UNL1        0.0369
      8 C          70.8097   76.5797   14.7928 C.ar    1  UNL1        0.0031
      9 C          71.7508   76.9155   13.6741 C.ar    1  UNL1        0.0003
     10 C          71.9468   78.3445   13.2623 C.ar    1  UNL1        0.0045
     11 C          71.7054   81.8404    6.1547 C.3     1  UNL1        0.0001
     12 C          72.0500   81.4076    7.5490 C.3     1  UNL1        0.0034
     13 C          71.8540   79.9786    7.9607 C.3     1  UNL1        0.0216
     14 C          72.1986   79.5458    9.3550 C.3     1  UNL1        0.0937
     15 N          72.7392   80.5421   10.3375 N.am    1  UNL1       -0.2761
     16 C          73.0838   80.1093   11.7317 C.2     1  UNL1        0.2490
     17 O          73.6244   81.1055   12.7142 O.2     1  UNL1       -0.2699
     18 C          72.9351   81.9711    9.9257 C.3     1  UNL1        0.0937
     19 C          72.5905   82.4039    8.5315 C.3     1  UNL1        0.0216
     20 O          71.1629   72.6285   14.9095 O.3     1  UNL1       -0.4754
     21 C          72.3475   71.7842   15.2754 C.3     1  UNL1        0.2068
     22 C          72.3572   70.3214   14.9435 C.3     1  UNL1        0.0646
     23 C          72.2585   69.8760   13.5146 C.3     1  UNL1        0.0759
     24 N          70.9517   69.9788   12.7854 N.3     1  UNL1       -0.2726
     25 C          70.7839   70.9844   11.6851 C.3     1  UNL1        0.0721
     26 C          69.4771   71.0872   10.9560 C.3     1  UNL1        0.0174
     27 C          68.3381   70.1844   11.3271 C.3     1  UNL1        0.0029
     28 C          68.5059   69.1789   12.4274 C.3     1  UNL1        0.0174
     29 C          69.8127   69.0761   13.1565 C.3     1  UNL1        0.0721
@<TRIPOS>BOND
     1    11    12    1
     2    12    13    1
     3    13    14    1
     4    14    15    1
     5    15    16   am
     6    16    17    2
     7    16     1    1
     8     1     2   ar
     9     2     3   ar
    10     3     4   ar
    11     4     5   ar
    12     5     6   ar
    13     6    20    1
    14    20    21    1
    15    21    22    1
    16    22    23    1
    17    23    24    1
    18    24    25    1
    19    25    26    1
    20    26    27    1
    21    27    28    1
    22    28    29    1
    23     6     7   ar
    24     7     8   ar
    25     8     9   ar
    26     9    10   ar
    27    15    18    1
    28    18    19    1
    29    19    12    1
    30    10     1   ar
    31     9     4   ar
    32    29    24    1
