@<TRIPOS>MOLECULE
*****
 33 35 0 0 0
SMALL
GASTEIGER

@<TRIPOS>ATOM
      1 N          64.0665   84.0479   12.4521 N.am    1  UNL1       -0.2560
      2 C          63.6549   83.7182   11.0478 C.3     1  UNL1        0.1394
      3 C          62.8414   84.8636   10.5221 C.ar    1  UNL1        0.0662
      4 C          62.0844   85.3677    9.3293 C.ar    1  UNL1        0.0247
      5 C          61.5252   86.7169    9.6716 C.ar    1  UNL1        0.0614
      6 C          61.9368   87.0466   11.0759 C.ar    1  UNL1        0.0922
      7 N          62.7502   85.9012   11.6015 N.ar    1  UNL1       -0.2624
      8 C          63.5073   85.3971   12.7943 C.2     1  UNL1        0.3234
      9 O          63.6757   86.1159   14.1000 O.2     1  UNL1       -0.2490
     10 C          60.6995   87.5841    8.7682 C.1     1  UNL1       -0.0497
     11 C          59.8738   88.4513    7.8648 C.1     1  UNL1       -0.0094
     12 C          59.0482   89.3186    6.9613 C.1     1  UNL1       -0.0126
     13 C          58.2225   90.1858    6.0579 C.1     1  UNL1       -0.0652
     14 C          57.3969   91.0530    5.1545 C.3     1  UNL1        0.0947
     15 N          56.0414   90.4537    5.3854 N.3     1  UNL1       -0.3139
     16 C          57.0420   92.1285    4.1709 C.3     1  UNL1        0.0290
     17 C          58.4656   91.9537    4.6098 C.3     1  UNL1        0.0290
     18 H          56.1184   89.6855    6.0520 H       1  UNL1        0.1196
     19 H          55.6703   90.1021    4.5028 H       1  UNL1        0.1196
     20 C          64.8921   83.1807   13.3555 C.3     1  UNL1        0.0977
     21 C          64.2513   82.0442   14.0956 C.3     1  UNL1        0.0524
     22 C          61.2701   81.9555   14.4183 C.3     1  UNL1        0.0331
     23 C          62.7607   81.9998   14.2569 C.3     1  UNL1        0.1820
     24 C          62.8281   83.1645   15.1998 C.2     1  UNL1        0.2640
     25 O          64.0009   83.3154   16.1227 O.2     1  UNL1       -0.2713
     26 N          61.7227   84.1782   15.2198 N.am    1  UNL1       -0.1956
     27 O          61.7901   85.3429   16.1627 O.3     1  UNL1       -0.2951
     28 H          60.9530   84.0792   14.6140 H       1  UNL1        0.1823
     29 H          62.6066   85.2902   16.6838 H       1  UNL1        0.2414
     30 S          62.6932   80.8352   13.3141 S.O2    1  UNL1       -0.0034
     31 C          62.6256   79.6706   12.3712 C.3     1  UNL1        0.1765
     32 O          61.8176   81.6319   12.3928 O.2     1  UNL1       -0.1726
     33 O          63.5687   80.0386   14.2353 O.2     1  UNL1       -0.1726
@<TRIPOS>BOND
     1    23    22    1
     2    23    21    1
     3    21    20    1
     4    20     1    1
     5     1     2    1
     6     2     3    1
     7     3     4   ar
     8     4     5   ar
     9     5    10    1
    10    10    11    3
    11    11    12    1
    12    12    13    3
    13    13    14    1
    14    14    15    1
    15    14    16    1
    16    16    17    1
    17     5     6   ar
    18     6     7   ar
    19     7     8   am
    20     8     9    2
    21    23    24    1
    22    24    25    2
    23    24    26   am
    24    26    27    1
    25    23    30    1
    26    30    31    1
    27    30    32    2
    28    30    33    2
    29     8     1   am
    30     7     3   ar
    31    17    14    1
    32    15    18    1
    33    15    19    1
    34    26    28    1
    35    27    29    1
@<TRIPOS>MOLECULE
*****
 33 35 0 0 0
SMALL
GASTEIGER

@<TRIPOS>ATOM
      1 N          64.0873   83.8535   12.1223 N.am    1  UNL1       -0.2560
      2 C          63.2806   85.0302   12.5858 C.3     1  UNL1        0.1394
      3 C          62.6113   85.6345   11.3871 C.ar    1  UNL1        0.0662
      4 C          61.6991   86.7352   10.9327 C.ar    1  UNL1        0.0247
      5 C          61.5282   86.6121    9.4476 C.ar    1  UNL1        0.0614
      6 C          62.3348   85.4355    8.9841 C.ar    1  UNL1        0.0922
      7 N          63.0042   84.8312   10.1827 N.ar    1  UNL1       -0.2624
      8 C          63.9164   83.7305   10.6371 C.2     1  UNL1        0.3234
      9 O          64.5470   82.6896    9.7602 O.2     1  UNL1       -0.2490
     10 C          60.6968   87.5085    8.5785 C.1     1  UNL1       -0.0497
     11 C          59.8653   88.4048    7.7094 C.1     1  UNL1       -0.0094
     12 C          59.0338   89.3012    6.8404 C.1     1  UNL1       -0.0126
     13 C          58.2023   90.1975    5.9713 C.1     1  UNL1       -0.0652
     14 C          57.3709   91.0938    5.1023 C.3     1  UNL1        0.0947
     15 N          56.0169   90.4869    5.3222 N.3     1  UNL1       -0.3139
     16 C          57.0097   92.2009    4.1569 C.3     1  UNL1        0.0290
     17 C          58.4361   92.0120    4.5806 C.3     1  UNL1        0.0290
     18 H          56.0982   89.6972    5.9627 H       1  UNL1        0.1196
     19 H          55.6401   90.1644    4.4309 H       1  UNL1        0.1196
     20 C          64.9187   82.9572   12.9913 C.3     1  UNL1        0.0977
     21 C          64.3810   82.4796   14.3077 C.3     1  UNL1        0.0524
     22 C          61.4691   81.8141   14.5863 C.3     1  UNL1        0.0331
     23 C          62.9251   82.1469   14.4470 C.3     1  UNL1        0.1820
     24 C          63.1343   80.8962   13.6458 C.2     1  UNL1        0.2640
     25 O          63.9391   79.7660   14.2160 O.2     1  UNL1       -0.2713
     26 N          62.5387   80.7756   12.2745 N.am    1  UNL1       -0.1956
     27 O          62.7478   79.5248   11.4733 O.3     1  UNL1       -0.2951
     28 H          62.0105   81.5173   11.9002 H       1  UNL1        0.1823
     29 H          63.2858   78.8999   11.9840 H       1  UNL1        0.2414
     30 S          62.7159   83.3976   15.2482 S.O2    1  UNL1       -0.0034
     31 C          62.5065   84.6483   16.0494 C.3     1  UNL1        0.1765
     32 O          61.3732   83.5843   14.6060 O.2     1  UNL1       -0.1726
     33 O          64.0585   83.2110   15.8904 O.2     1  UNL1       -0.1726
@<TRIPOS>BOND
     1    23    22    1
     2    23    21    1
     3    21    20    1
     4    20     1    1
     5     1     2    1
     6     2     3    1
     7     3     4   ar
     8     4     5   ar
     9     5    10    1
    10    10    11    3
    11    11    12    1
    12    12    13    3
    13    13    14    1
    14    14    15    1
    15    14    16    1
    16    16    17    1
    17     5     6   ar
    18     6     7   ar
    19     7     8   am
    20     8     9    2
    21    23    24    1
    22    24    25    2
    23    24    26   am
    24    26    27    1
    25    23    30    1
    26    30    31    1
    27    30    32    2
    28    30    33    2
    29     8     1   am
    30     7     3   ar
    31    17    14    1
    32    15    18    1
    33    15    19    1
    34    26    28    1
    35    27    29    1
@<TRIPOS>MOLECULE
*****
 33 35 0 0 0
SMALL
GASTEIGER

@<TRIPOS>ATOM
      1 N          60.3987   95.9242   -1.2908 N.am    1  UNL1       -0.2560
      2 C          61.1691   96.0234   -0.0076 C.3     1  UNL1        0.1394
      3 C          60.7409   94.8917    0.8789 C.ar    1  UNL1        0.0662
      4 C          60.9524   94.2537    2.2199 C.ar    1  UNL1        0.0247
      5 C          60.0480   93.0607    2.3133 C.ar    1  UNL1        0.0614
      6 C          59.2776   92.9614    1.0301 C.ar    1  UNL1        0.0922
      7 N          59.7058   94.0930    0.1436 N.ar    1  UNL1       -0.2624
      8 C          59.4943   94.7311   -1.1973 C.2     1  UNL1        0.3234
      9 O          58.5451   94.2590   -2.2585 O.2     1  UNL1       -0.2490
     10 C          59.9341   92.1302    3.4843 C.1     1  UNL1       -0.0497
     11 C          59.8201   91.1998    4.6554 C.1     1  UNL1       -0.0094
     12 C          59.7060   90.2694    5.8264 C.1     1  UNL1       -0.0126
     13 C          59.5919   89.3390    6.9975 C.1     1  UNL1       -0.0652
     14 C          59.4778   88.4086    8.1685 C.3     1  UNL1        0.0947
     15 N          58.5965   87.3498    7.5750 N.3     1  UNL1       -0.3139
     16 C          59.6697   87.8459    9.5456 C.3     1  UNL1        0.0290
     17 C          60.3194   89.1443    9.1687 C.3     1  UNL1        0.0290
     18 H          58.3713   87.5957    6.6111 H       1  UNL1        0.1196
     19 H          57.7358   87.2801    8.1180 H       1  UNL1        0.1196
     20 C          60.5126   96.8545   -2.4618 C.3     1  UNL1        0.0977
     21 C          61.7146   96.7899   -3.3570 C.3     1  UNL1        0.0524
     22 C          62.5503   94.1717   -4.5595 C.3     1  UNL1        0.0331
     23 C          62.1325   95.4808   -3.9582 C.3     1  UNL1        0.1820
     24 C          60.8695   95.4491   -4.7669 C.2     1  UNL1        0.2640
     25 O          60.5206   96.6037   -5.6585 O.2     1  UNL1       -0.2713
     26 N          59.9554   94.2627   -4.6838 N.am    1  UNL1       -0.1956
     27 O          58.6924   94.2309   -5.4925 O.3     1  UNL1       -0.2951
     28 H          60.1844   93.5048   -4.0986 H       1  UNL1        0.1823
     29 H          58.6192   95.0481   -6.0099 H       1  UNL1        0.2414
     30 S          63.3954   95.5125   -3.1496 S.O2    1  UNL1       -0.0034
     31 C          64.6584   95.5443   -2.3411 C.3     1  UNL1        0.1765
     32 O          63.7922   96.7945   -3.8198 O.2     1  UNL1       -0.1726
     33 O          62.9987   94.2306   -2.4796 O.2     1  UNL1       -0.1726
@<TRIPOS>BOND
     1    23    22    1
     2    23    21    1
     3    21    20    1
     4    20     1    1
     5     1     2    1
     6     2     3    1
     7     3     4   ar
     8     4     5   ar
     9     5    10    1
    10    10    11    3
    11    11    12    1
    12    12    13    3
    13    13    14    1
    14    14    15    1
    15    14    16    1
    16    16    17    1
    17     5     6   ar
    18     6     7   ar
    19     7     8   am
    20     8     9    2
    21    23    24    1
    22    24    25    2
    23    24    26   am
    24    26    27    1
    25    23    30    1
    26    30    31    1
    27    30    32    2
    28    30    33    2
    29     8     1   am
    30     7     3   ar
    31    17    14    1
    32    15    18    1
    33    15    19    1
    34    26    28    1
    35    27    29    1
@<TRIPOS>MOLECULE
*****
 33 35 0 0 0
SMALL
GASTEIGER

@<TRIPOS>ATOM
      1 N          60.8868   95.8912   -1.0579 N.am    1  UNL1       -0.2560
      2 C          59.7122   94.9860   -0.8323 C.3     1  UNL1        0.1394
      3 C          59.9541   94.2195    0.4342 C.ar    1  UNL1        0.0662
      4 C          59.3777   93.1864    1.3564 C.ar    1  UNL1        0.0247
      5 C          60.3457   92.9793    2.4834 C.ar    1  UNL1        0.0614
      6 C          61.5203   93.8845    2.2578 C.ar    1  UNL1        0.0922
      7 N          61.2783   94.6510    0.9913 N.ar    1  UNL1       -0.2624
      8 C          61.8548   95.6841    0.0692 C.2     1  UNL1        0.3234
      9 O          63.1684   96.3869    0.2435 O.2     1  UNL1       -0.2490
     10 C          60.1699   92.0332    3.6340 C.1     1  UNL1       -0.0497
     11 C          59.9941   91.0871    4.7847 C.1     1  UNL1       -0.0094
     12 C          59.8183   90.1409    5.9353 C.1     1  UNL1       -0.0126
     13 C          59.6424   89.1948    7.0859 C.1     1  UNL1       -0.0652
     14 C          59.4666   88.2487    8.2365 C.3     1  UNL1        0.0947
     15 N          58.5226   87.2601    7.6189 N.3     1  UNL1       -0.3139
     16 C          59.6186   87.6459    9.6016 C.3     1  UNL1        0.0290
     17 C          60.3496   88.9087    9.2538 C.3     1  UNL1        0.0290
     18 H          58.3163   87.5402    6.6601 H       1  UNL1        0.1196
     19 H          57.6576   87.2330    8.1588 H       1  UNL1        0.1196
     20 C          61.0626   96.8372   -2.2085 C.3     1  UNL1        0.0977
     21 C          62.2261   96.6756   -3.1414 C.3     1  UNL1        0.0524
     22 C          62.7252   94.0343   -4.4734 C.3     1  UNL1        0.0331
     23 C          62.4756   95.3550   -3.8074 C.3     1  UNL1        0.1820
     24 C          63.5811   95.0728   -2.8336 C.2     1  UNL1        0.2640
     25 O          63.7398   93.6972   -2.2571 O.2     1  UNL1       -0.2713
     26 N          64.5280   96.1663   -2.4364 N.am    1  UNL1       -0.1956
     27 O          65.6336   95.8840   -1.4627 O.3     1  UNL1       -0.2951
     28 H          64.4239   97.0692   -2.8148 H       1  UNL1        0.1823
     29 H          65.5944   94.9541   -1.1897 H       1  UNL1        0.2414
     30 S          61.3702   95.6371   -4.7811 S.O2    1  UNL1       -0.0034
     31 C          60.2646   95.9191   -5.7549 C.3     1  UNL1        0.1765
     32 O          60.6343   94.4227   -4.2976 O.2     1  UNL1       -0.1726
     33 O          62.1059   96.8515   -5.2647 O.2     1  UNL1       -0.1726
@<TRIPOS>BOND
     1    23    22    1
     2    23    21    1
     3    21    20    1
     4    20     1    1
     5     1     2    1
     6     2     3    1
     7     3     4   ar
     8     4     5   ar
     9     5    10    1
    10    10    11    3
    11    11    12    1
    12    12    13    3
    13    13    14    1
    14    14    15    1
    15    14    16    1
    16    16    17    1
    17     5     6   ar
    18     6     7   ar
    19     7     8   am
    20     8     9    2
    21    23    24    1
    22    24    25    2
    23    24    26   am
    24    26    27    1
    25    23    30    1
    26    30    31    1
    27    30    32    2
    28    30    33    2
    29     8     1   am
    30     7     3   ar
    31    17    14    1
    32    15    18    1
    33    15    19    1
    34    26    28    1
    35    27    29    1
@<TRIPOS>MOLECULE
*****
 33 35 0 0 0
SMALL
GASTEIGER

@<TRIPOS>ATOM
      1 N          64.2926   92.3587   11.3700 N.am    1  UNL1       -0.2560
      2 C          63.5920   91.4043   10.4489 C.3     1  UNL1        0.1394
      3 C          63.4818   90.0818   11.1480 C.ar    1  UNL1        0.0662
      4 C          62.9807   88.6747   11.0107 C.ar    1  UNL1        0.0247
      5 C          63.3034   87.9419   12.2792 C.ar    1  UNL1        0.0614
      6 C          64.0040   88.8962   13.2004 C.ar    1  UNL1        0.0922
      7 N          64.1142   90.2187   12.5012 N.ar    1  UNL1       -0.2624
      8 C          64.6154   91.6259   12.6385 C.2     1  UNL1        0.3234
      9 O          65.3162   92.1995   13.8342 O.2     1  UNL1       -0.2490
     10 C          62.9820   86.5069   12.5746 C.1     1  UNL1       -0.0497
     11 C          62.6606   85.0718   12.8701 C.1     1  UNL1       -0.0094
     12 C          62.3391   83.6367   13.1655 C.1     1  UNL1       -0.0126
     13 C          62.0175   82.2017   13.4609 C.1     1  UNL1       -0.0652
     14 C          61.6959   80.7667   13.7563 C.3     1  UNL1        0.0947
     15 N          60.2995   80.9158   14.2832 N.3     1  UNL1       -0.3139
     16 C          61.8593   79.2799   13.8687 C.3     1  UNL1        0.0290
     17 C          62.9807   80.1191   13.3320 C.3     1  UNL1        0.0290
     18 H          60.0344   81.9007   14.2700 H       1  UNL1        0.1196
     19 H          60.2580   80.5654   15.2403 H       1  UNL1        0.1196
     20 C          64.6140   93.7936   11.0746 C.3     1  UNL1        0.0977
     21 C          65.9947   94.3212   11.3310 C.3     1  UNL1        0.0524
     22 C          68.0609   94.2355    9.1578 C.3     1  UNL1        0.0331
     23 C          67.0277   94.2784   10.2444 C.3     1  UNL1        0.1820
     24 C          67.5579   92.9895   10.7993 C.2     1  UNL1        0.2640
     25 O          67.9129   91.8641    9.8734 O.2     1  UNL1       -0.2713
     26 N          67.7331   92.8262   12.2800 N.am    1  UNL1       -0.1956
     27 O          68.2632   91.5373   12.8349 O.3     1  UNL1       -0.2951
     28 H          67.5001   93.5648   12.8877 H       1  UNL1        0.1823
     29 H          68.4408   90.9209   12.1073 H       1  UNL1        0.2414
     30 S          66.4977   95.5671    9.6895 S.O2    1  UNL1       -0.0034
     31 C          65.9676   96.8559    9.1345 C.3     1  UNL1        0.1765
     32 O          66.5339   94.9867    8.3068 O.2     1  UNL1       -0.1726
     33 O          66.4614   96.1476   11.0721 O.2     1  UNL1       -0.1726
@<TRIPOS>BOND
     1    23    22    1
     2    23    21    1
     3    21    20    1
     4    20     1    1
     5     1     2    1
     6     2     3    1
     7     3     4   ar
     8     4     5   ar
     9     5    10    1
    10    10    11    3
    11    11    12    1
    12    12    13    3
    13    13    14    1
    14    14    15    1
    15    14    16    1
    16    16    17    1
    17     5     6   ar
    18     6     7   ar
    19     7     8   am
    20     8     9    2
    21    23    24    1
    22    24    25    2
    23    24    26   am
    24    26    27    1
    25    23    30    1
    26    30    31    1
    27    30    32    2
    28    30    33    2
    29     8     1   am
    30     7     3   ar
    31    17    14    1
    32    15    18    1
    33    15    19    1
    34    26    28    1
    35    27    29    1
@<TRIPOS>MOLECULE
*****
 33 35 0 0 0
SMALL
GASTEIGER

@<TRIPOS>ATOM
      1 N          62.1981   95.8699   -0.8426 N.am    1  UNL1       -0.2560
      2 C          60.8527   95.7269   -0.1948 C.3     1  UNL1        0.1394
      3 C          60.9592   94.6730    0.8673 C.ar    1  UNL1        0.0662
      4 C          60.1935   93.9334    1.9240 C.ar    1  UNL1        0.0247
      5 C          61.1315   92.9680    2.5859 C.ar    1  UNL1        0.0614
      6 C          62.4769   93.1110    1.9382 C.ar    1  UNL1        0.0922
      7 N          62.3704   94.1648    0.8761 N.ar    1  UNL1       -0.2624
      8 C          63.1361   94.9044   -0.1807 C.2     1  UNL1        0.3234
      9 O          64.5853   94.7123   -0.5165 O.2     1  UNL1       -0.2490
     10 C          60.7850   92.0251    3.6998 C.1     1  UNL1       -0.0497
     11 C          60.4385   91.0822    4.8138 C.1     1  UNL1       -0.0094
     12 C          60.0919   90.1393    5.9278 C.1     1  UNL1       -0.0126
     13 C          59.7452   89.1965    7.0417 C.1     1  UNL1       -0.0652
     14 C          59.3986   88.2537    8.1556 C.3     1  UNL1        0.0947
     15 N          58.4670   87.3270    7.4322 N.3     1  UNL1       -0.3139
     16 C          59.3754   87.6327    9.5208 C.3     1  UNL1        0.0290
     17 C          60.2097   88.8529    9.2661 C.3     1  UNL1        0.0290
     18 H          58.3762   87.6259    6.4612 H       1  UNL1        0.1196
     19 H          57.5513   87.3467    7.8811 H       1  UNL1        0.1196
     20 C          62.5446   96.8127   -1.9565 C.3     1  UNL1        0.0977
     21 C          62.0186   96.5655   -3.3394 C.3     1  UNL1        0.0524
     22 C          62.4824   93.9167   -4.6693 C.3     1  UNL1        0.0331
     23 C          62.2505   95.2412   -4.0043 C.3     1  UNL1        0.1820
     24 C          60.8511   94.8239   -3.6614 C.2     1  UNL1        0.2640
     25 O          59.7026   95.7459   -3.9458 O.2     1  UNL1       -0.2713
     26 N          60.6002   93.4846   -3.0343 N.am    1  UNL1       -0.1956
     27 O          59.2008   93.0673   -2.6914 O.3     1  UNL1       -0.2951
     28 H          61.3540   92.8795   -2.8477 H       1  UNL1        0.1823
     29 H          58.5832   93.7734   -2.9383 H       1  UNL1        0.2414
     30 S          63.6499   95.6583   -4.3473 S.O2    1  UNL1       -0.0034
     31 C          65.0494   96.0754   -4.6901 C.3     1  UNL1        0.1765
     32 O          64.1852   94.4612   -3.6189 O.2     1  UNL1       -0.1726
     33 O          63.1147   96.8554   -5.0755 O.2     1  UNL1       -0.1726
@<TRIPOS>BOND
     1    23    22    1
     2    23    21    1
     3    21    20    1
     4    20     1    1
     5     1     2    1
     6     2     3    1
     7     3     4   ar
     8     4     5   ar
     9     5    10    1
    10    10    11    3
    11    11    12    1
    12    12    13    3
    13    13    14    1
    14    14    15    1
    15    14    16    1
    16    16    17    1
    17     5     6   ar
    18     6     7   ar
    19     7     8   am
    20     8     9    2
    21    23    24    1
    22    24    25    2
    23    24    26   am
    24    26    27    1
    25    23    30    1
    26    30    31    1
    27    30    32    2
    28    30    33    2
    29     8     1   am
    30     7     3   ar
    31    17    14    1
    32    15    18    1
    33    15    19    1
    34    26    28    1
    35    27    29    1
@<TRIPOS>MOLECULE
*****
 33 35 0 0 0
SMALL
GASTEIGER

@<TRIPOS>ATOM
      1 N          61.2696   86.4907   11.1480 N.am    1  UNL1       -0.2560
      2 C          60.8387   86.0404    9.7836 C.3     1  UNL1        0.1394
      3 C          60.7274   87.2537    8.9086 C.ar    1  UNL1        0.0662
      4 C          60.3923   87.7252    7.5247 C.ar    1  UNL1        0.0247
      5 C          60.5473   89.2168    7.4930 C.ar    1  UNL1        0.0614
      6 C          60.9782   89.6672    8.8574 C.ar    1  UNL1        0.0922
      7 N          61.0895   88.4539    9.7323 N.ar    1  UNL1       -0.2624
      8 C          61.4246   87.9824   11.1163 C.2     1  UNL1        0.3234
      9 O          61.8415   88.8502   12.2666 O.2     1  UNL1       -0.2490
     10 C          60.3126   90.1026    6.3054 C.1     1  UNL1       -0.0497
     11 C          60.0779   90.9884    5.1179 C.1     1  UNL1       -0.0094
     12 C          59.8432   91.8743    3.9303 C.1     1  UNL1       -0.0126
     13 C          59.6087   92.7602    2.7428 C.1     1  UNL1       -0.0652
     14 C          59.3741   93.6460    1.5554 C.3     1  UNL1        0.0947
     15 N          58.4900   92.7539    0.7354 N.3     1  UNL1       -0.3139
     16 C          59.4465   94.8418    0.6526 C.3     1  UNL1        0.0290
     17 C          60.1767   94.8460    1.9628 C.3     1  UNL1        0.0290
     18 H          58.3424   91.8740    1.2299 H       1  UNL1        0.1196
     19 H          58.9345   92.5681   -0.1637 H       1  UNL1        0.1196
     20 C          61.5043   85.6050   12.3355 C.3     1  UNL1        0.0977
     21 C          62.8597   85.0058   12.5681 C.3     1  UNL1        0.0524
     22 C          63.2089   82.8311   14.6049 C.3     1  UNL1        0.0331
     23 C          63.0343   83.9185   13.5864 C.3     1  UNL1        0.1820
     24 C          62.9744   84.9379   14.6852 C.2     1  UNL1        0.2640
     25 O          63.8909   86.1249   14.6577 O.2     1  UNL1       -0.2713
     26 N          61.9979   84.7702   15.8114 N.am    1  UNL1       -0.1956
     27 O          61.9380   85.7896   16.9102 O.3     1  UNL1       -0.2951
     28 H          61.3964   83.9910   15.8294 H       1  UNL1        0.1823
     29 H          62.5914   86.4862   16.7409 H       1  UNL1        0.2414
     30 S          63.0942   82.8990   12.4878 S.O2    1  UNL1       -0.0034
     31 C          63.1541   81.8795   11.3892 C.3     1  UNL1        0.1765
     32 O          61.9751   82.1371   13.1338 O.2     1  UNL1       -0.1726
     33 O          64.2133   83.6608   11.8419 O.2     1  UNL1       -0.1726
@<TRIPOS>BOND
     1    23    22    1
     2    23    21    1
     3    21    20    1
     4    20     1    1
     5     1     2    1
     6     2     3    1
     7     3     4   ar
     8     4     5   ar
     9     5    10    1
    10    10    11    3
    11    11    12    1
    12    12    13    3
    13    13    14    1
    14    14    15    1
    15    14    16    1
    16    16    17    1
    17     5     6   ar
    18     6     7   ar
    19     7     8   am
    20     8     9    2
    21    23    24    1
    22    24    25    2
    23    24    26   am
    24    26    27    1
    25    23    30    1
    26    30    31    1
    27    30    32    2
    28    30    33    2
    29     8     1   am
    30     7     3   ar
    31    17    14    1
    32    15    18    1
    33    15    19    1
    34    26    28    1
    35    27    29    1
@<TRIPOS>MOLECULE
*****
 33 35 0 0 0
SMALL
GASTEIGER

@<TRIPOS>ATOM
      1 N          60.9445   95.7233   -1.3380 N.am    1  UNL1       -0.2560
      2 C          60.1114   96.0090   -0.1237 C.3     1  UNL1        0.1394
      3 C          60.2267   94.8360    0.8040 C.ar    1  UNL1        0.0662
      4 C          59.7830   94.2877    2.1278 C.ar    1  UNL1        0.0247
      5 C          60.4131   92.9380    2.3052 C.ar    1  UNL1        0.0614
      6 C          61.2462   92.6523    1.0910 C.ar    1  UNL1        0.0922
      7 N          61.1310   93.8253    0.1632 N.ar    1  UNL1       -0.2624
      8 C          61.5747   94.3736   -1.1606 C.2     1  UNL1        0.3234
      9 O          62.4881   93.6920   -2.1359 O.2     1  UNL1       -0.2490
     10 C          60.2405   92.0330    3.4889 C.1     1  UNL1       -0.0497
     11 C          60.0678   91.1280    4.6726 C.1     1  UNL1       -0.0094
     12 C          59.8951   90.2230    5.8563 C.1     1  UNL1       -0.0126
     13 C          59.7224   89.3180    7.0400 C.1     1  UNL1       -0.0652
     14 C          59.5497   88.4131    8.2237 C.3     1  UNL1        0.0947
     15 N          58.5923   87.4118    7.6486 N.3     1  UNL1       -0.3139
     16 C          59.7096   87.8557    9.6071 C.3     1  UNL1        0.0290
     17 C          60.4473   89.0999    9.2099 C.3     1  UNL1        0.0290
     18 H          58.3794   87.6608    6.6826 H       1  UNL1        0.1196
     19 H          57.7321   87.4102    8.1968 H       1  UNL1        0.1196
     20 C          61.1172   96.6282   -2.5216 C.3     1  UNL1        0.0977
     21 C          60.0388   96.7184   -3.5605 C.3     1  UNL1        0.0524
     22 C          59.2390   94.2762   -5.1082 C.3     1  UNL1        0.0331
     23 C          59.6389   95.4973   -4.3343 C.3     1  UNL1        0.1820
     24 C          60.9398   95.5436   -5.0797 C.2     1  UNL1        0.2640
     25 O          61.2360   96.6898   -6.0008 O.2     1  UNL1       -0.2713
     26 N          61.9444   94.4437   -4.9040 N.am    1  UNL1       -0.1956
     27 O          63.2453   94.4900   -5.6494 O.3     1  UNL1       -0.2951
     28 H          61.7500   93.6914   -4.2994 H       1  UNL1        0.1823
     29 H          63.2763   95.2906   -6.1962 H       1  UNL1        0.2414
     30 S          58.3381   95.4509   -3.5890 S.O2    1  UNL1       -0.0034
     31 C          57.0372   95.4047   -2.8437 C.3     1  UNL1        0.1765
     32 O          58.0398   96.8557   -4.0223 O.2     1  UNL1       -0.1726
     33 O          58.6363   94.0463   -3.1557 O.2     1  UNL1       -0.1726
@<TRIPOS>BOND
     1    23    22    1
     2    23    21    1
     3    21    20    1
     4    20     1    1
     5     1     2    1
     6     2     3    1
     7     3     4   ar
     8     4     5   ar
     9     5    10    1
    10    10    11    3
    11    11    12    1
    12    12    13    3
    13    13    14    1
    14    14    15    1
    15    14    16    1
    16    16    17    1
    17     5     6   ar
    18     6     7   ar
    19     7     8   am
    20     8     9    2
    21    23    24    1
    22    24    25    2
    23    24    26   am
    24    26    27    1
    25    23    30    1
    26    30    31    1
    27    30    32    2
    28    30    33    2
    29     8     1   am
    30     7     3   ar
    31    17    14    1
    32    15    18    1
    33    15    19    1
    34    26    28    1
    35    27    29    1
@<TRIPOS>MOLECULE
*****
 33 35 0 0 0
SMALL
GASTEIGER

@<TRIPOS>ATOM
      1 N          65.0348   92.0707   13.2956 N.am    1  UNL1       -0.2560
      2 C          65.2838   91.1231   14.4314 C.3     1  UNL1        0.1394
      3 C          64.6869   89.7960   14.0675 C.ar    1  UNL1        0.0662
      4 C          64.4719   88.3903   14.5445 C.ar    1  UNL1        0.0247
      5 C          63.7211   87.6488   13.4785 C.ar    1  UNL1        0.0614
      6 C          63.4720   88.5963   12.3426 C.ar    1  UNL1        0.0922
      7 N          64.0689   89.9234   12.7066 N.ar    1  UNL1       -0.2624
      8 C          64.2839   91.3291   12.2295 C.2     1  UNL1        0.3234
      9 O          63.8281   91.8942   10.9169 O.2     1  UNL1       -0.2490
     10 C          63.2942   86.2120   13.5379 C.1     1  UNL1       -0.0497
     11 C          62.8673   84.7753   13.5974 C.1     1  UNL1       -0.0094
     12 C          62.4404   83.3385   13.6567 C.1     1  UNL1       -0.0126
     13 C          62.0135   81.9018   13.7161 C.1     1  UNL1       -0.0652
     14 C          61.5866   80.4651   13.7754 C.3     1  UNL1        0.0947
     15 N          60.2035   80.6271   14.3327 N.3     1  UNL1       -0.3139
     16 C          61.6401   78.9721   13.6412 C.3     1  UNL1        0.0290
     17 C          62.8216   79.8040   13.2388 C.3     1  UNL1        0.0290
     18 H          60.0115   81.6174   14.4834 H       1  UNL1        0.1196
     19 H          60.1337   80.1284   15.2198 H       1  UNL1        0.1196
     20 C          65.4616   93.5074   13.2361 C.3     1  UNL1        0.0977
     21 C          66.7417   93.8817   12.5495 C.3     1  UNL1        0.0524
     22 C          66.8159   94.1628    9.5637 C.3     1  UNL1        0.0331
     23 C          66.7788   94.0222   11.0567 C.3     1  UNL1        0.1820
     24 C          65.9719   95.2829   11.1552 C.2     1  UNL1        0.2640
     25 O          66.2044   96.2353   12.2905 O.2     1  UNL1       -0.2713
     26 N          64.9326   95.5911   10.1186 N.am    1  UNL1       -0.1956
     27 O          64.1257   96.8518   10.2171 O.3     1  UNL1       -0.2951
     28 H          64.7800   94.9660    9.3734 H       1  UNL1        0.1823
     29 H          64.3995   97.3503   11.0029 H       1  UNL1        0.2414
     30 S          67.5857   92.7617   10.9580 S.O2    1  UNL1       -0.0034
     31 C          68.3926   91.5010   10.8594 C.3     1  UNL1        0.1765
     32 O          67.8918   92.8428   12.4242 O.2     1  UNL1       -0.1726
     33 O          67.2796   92.6804    9.4919 O.2     1  UNL1       -0.1726
@<TRIPOS>BOND
     1    23    22    1
     2    23    21    1
     3    21    20    1
     4    20     1    1
     5     1     2    1
     6     2     3    1
     7     3     4   ar
     8     4     5   ar
     9     5    10    1
    10    10    11    3
    11    11    12    1
    12    12    13    3
    13    13    14    1
    14    14    15    1
    15    14    16    1
    16    16    17    1
    17     5     6   ar
    18     6     7   ar
    19     7     8   am
    20     8     9    2
    21    23    24    1
    22    24    25    2
    23    24    26   am
    24    26    27    1
    25    23    30    1
    26    30    31    1
    27    30    32    2
    28    30    33    2
    29     8     1   am
    30     7     3   ar
    31    17    14    1
    32    15    18    1
    33    15    19    1
    34    26    28    1
    35    27    29    1
