@<TRIPOS>MOLECULE
*****
 27 30 0 0 0
SMALL
GASTEIGER

@<TRIPOS>ATOM
      1 C          63.5482   86.0195   13.3511 C.ar    1  UNL1        0.0153
      2 C          63.0884   87.0555   12.3685 C.ar    1  UNL1        0.0043
      3 C          63.3040   88.5114   12.6579 C.ar    1  UNL1        0.0369
      4 C          63.9793   88.9314   13.9298 C.ar    1  UNL1        0.1384
      5 C          64.4390   87.8954   14.9123 C.ar    1  UNL1        0.0369
      6 C          64.2234   86.4394   14.6229 C.ar    1  UNL1        0.0043
      7 C          63.3959   81.2612   10.6602 C.3     1  UNL1        0.0095
      8 C          63.4316   82.5586   11.4122 C.3     1  UNL1        0.0761
      9 C          63.9493   83.0151   10.0804 C.3     1  UNL1        0.0095
     10 C          63.6472   84.0145   11.7016 C.3     1  UNL1        0.0560
     11 C          63.3326   84.5635   13.0617 C.2     1  UNL1        0.0767
     12 N          62.8025   83.6565   14.1323 N.2     1  UNL1       -0.1836
     13 N          62.5869   82.2005   13.8429 N.am    1  UNL1       -0.2062
     14 C          62.9015   81.6516   12.4828 C.2     1  UNL1        0.2405
     15 O          62.6859   80.1956   12.1934 O.2     1  UNL1       -0.2734
     16 H          62.2390   81.6052   14.5456 H       1  UNL1        0.1772
     17 O          64.1948   90.3873   14.2191 O.3     1  UNL1       -0.4791
     18 C          64.8546   91.2654   13.1975 C.3     1  UNL1        0.1687
     19 C          64.1971   91.4950   11.8690 C.3     1  UNL1        0.0609
     20 C          64.8569   92.3730   10.8474 C.3     1  UNL1        0.0758
     21 N          66.1742   93.0215   11.1543 N.3     1  UNL1       -0.2737
     22 C          66.8317   92.7919   12.4827 C.3     1  UNL1        0.0758
     23 C          66.1719   91.9138   13.5044 C.3     1  UNL1        0.0609
     24 C          66.8340   93.8995   10.1326 C.3     1  UNL1        0.0575
     25 C          67.9063   93.7062    9.1017 C.3     1  UNL1        0.0160
     26 C          67.7671   95.1412    8.6879 C.3     1  UNL1        0.0028
     27 C          66.6948   95.3346    9.7188 C.3     1  UNL1        0.0160
@<TRIPOS>BOND
     1     7     8    1
     2     8     9    1
     3     8    10    1
     4    10    11    1
     5    11     1    1
     6     1     2   ar
     7     2     3   ar
     8     3     4   ar
     9     4    17    1
    10    17    18    1
    11    18    19    1
    12    19    20    1
    13    20    21    1
    14    21    24    1
    15    24    25    1
    16    25    26    1
    17    26    27    1
    18    21    22    1
    19    22    23    1
    20     4     5   ar
    21     5     6   ar
    22    11    12    2
    23    12    13    1
    24    13    14   am
    25    14    15    2
    26    14     8    1
    27     6     1   ar
    28    23    18    1
    29    27    24    1
    30    13    16    1
@<TRIPOS>MOLECULE
*****
 27 30 0 0 0
SMALL
GASTEIGER

@<TRIPOS>ATOM
      1 C          63.5204   85.7206   13.0237 C.ar    1  UNL1        0.0153
      2 C          64.2178   86.0891   14.2995 C.ar    1  UNL1        0.0043
      3 C          64.3902   87.5323   14.6702 C.ar    1  UNL1        0.0369
      4 C          63.8652   88.6071   13.7649 C.ar    1  UNL1        0.1384
      5 C          63.1678   88.2385   12.4891 C.ar    1  UNL1        0.0369
      6 C          62.9954   86.7952   12.1185 C.ar    1  UNL1        0.0043
      7 C          62.0988   80.4490   13.3309 C.3     1  UNL1        0.0095
      8 C          62.4954   81.8922   13.2312 C.3     1  UNL1        0.0761
      9 C          61.8498   81.8924   14.5852 C.3     1  UNL1        0.0095
     10 C          62.6678   83.3354   13.6018 C.3     1  UNL1        0.0560
     11 C          63.3481   84.2773   12.6530 C.2     1  UNL1        0.0767
     12 N          63.8559   83.7759   11.3337 N.2     1  UNL1       -0.1836
     13 N          63.6835   82.3327   10.9632 N.am    1  UNL1       -0.2062
     14 C          63.0033   81.3909   11.9119 C.2     1  UNL1        0.2405
     15 O          62.8309   79.9476   11.5413 O.2     1  UNL1       -0.2734
     16 H          64.0169   82.0037   10.0972 H       1  UNL1        0.1772
     17 O          64.0376   90.0503   14.1356 O.3     1  UNL1       -0.4791
     18 C          64.7245   90.9906   13.1901 C.3     1  UNL1        0.1687
     19 C          64.0778   91.3465   11.8844 C.3     1  UNL1        0.0609
     20 C          64.7648   92.2868   10.9389 C.3     1  UNL1        0.0758
     21 N          66.0984   92.8711   11.2991 N.3     1  UNL1       -0.2737
     22 C          66.7451   92.5152   12.6049 C.3     1  UNL1        0.0758
     23 C          66.0582   91.5749   13.5504 C.3     1  UNL1        0.0609
     24 C          66.7854   93.8114   10.3536 C.3     1  UNL1        0.0575
     25 C          66.7168   95.2861   10.0876 C.3     1  UNL1        0.0160
     26 C          67.7569   95.1412    9.0165 C.3     1  UNL1        0.0028
     27 C          67.8255   93.6666    9.2824 C.3     1  UNL1        0.0160
@<TRIPOS>BOND
     1     7     8    1
     2     8     9    1
     3     8    10    1
     4    10    11    1
     5    11     1    1
     6     1     2   ar
     7     2     3   ar
     8     3     4   ar
     9     4    17    1
    10    17    18    1
    11    18    19    1
    12    19    20    1
    13    20    21    1
    14    21    24    1
    15    24    25    1
    16    25    26    1
    17    26    27    1
    18    21    22    1
    19    22    23    1
    20     4     5   ar
    21     5     6   ar
    22    11    12    2
    23    12    13    1
    24    13    14   am
    25    14    15    2
    26    14     8    1
    27     6     1   ar
    28    23    18    1
    29    27    24    1
    30    13    16    1
@<TRIPOS>MOLECULE
*****
 27 30 0 0 0
SMALL
GASTEIGER

@<TRIPOS>ATOM
      1 C          65.6952   92.2472   12.4696 C.ar    1  UNL1        0.0153
      2 C          64.3407   91.6291   12.2870 C.ar    1  UNL1        0.0043
      3 C          63.7922   90.7027   13.3313 C.ar    1  UNL1        0.0369
      4 C          64.5981   90.3943   14.5584 C.ar    1  UNL1        0.1384
      5 C          65.9525   91.0125   14.7410 C.ar    1  UNL1        0.0369
      6 C          66.5011   91.9390   13.6965 C.ar    1  UNL1        0.0043
      7 C          66.9456   96.8554    9.8037 C.3     1  UNL1        0.0095
      8 C          66.6103   95.5823   10.5228 C.3     1  UNL1        0.0761
      9 C          65.9964   96.5801   11.4596 C.3     1  UNL1        0.0095
     10 C          66.0618   94.6559   11.5672 C.3     1  UNL1        0.0560
     11 C          66.2437   93.1737   11.4251 C.2     1  UNL1        0.0767
     12 N          66.9741   92.6180   10.2386 N.2     1  UNL1       -0.1836
     13 N          67.5226   93.5445    9.1943 N.am    1  UNL1       -0.2062
     14 C          67.3407   95.0266    9.3363 C.2     1  UNL1        0.2405
     15 O          67.8893   95.9531    8.2919 O.2     1  UNL1       -0.2734
     16 H          68.0020   93.1798    8.4155 H       1  UNL1        0.1772
     17 O          64.0495   89.4679   15.6028 O.3     1  UNL1       -0.4791
     18 C          63.8512   88.0150   15.2870 C.3     1  UNL1        0.1687
     19 C          63.4971   87.0513   16.3805 C.3     1  UNL1        0.0609
     20 C          63.2988   85.5984   16.0647 C.3     1  UNL1        0.0758
     21 N          63.4545   85.1092   14.6554 N.3     1  UNL1       -0.2737
     22 C          63.8087   86.0728   13.5618 C.3     1  UNL1        0.0758
     23 C          64.0070   87.5258   13.8776 C.3     1  UNL1        0.0609
     24 C          63.2562   83.6563   14.3396 C.3     1  UNL1        0.0575
     25 C          63.9935   82.6386   13.5204 C.3     1  UNL1        0.0160
     26 C          62.9758   81.6016   13.8930 C.3     1  UNL1        0.0028
     27 C          62.2385   82.6191   14.7121 C.3     1  UNL1        0.0160
@<TRIPOS>BOND
     1     7     8    1
     2     8     9    1
     3     8    10    1
     4    10    11    1
     5    11     1    1
     6     1     2   ar
     7     2     3   ar
     8     3     4   ar
     9     4    17    1
    10    17    18    1
    11    18    19    1
    12    19    20    1
    13    20    21    1
    14    21    24    1
    15    24    25    1
    16    25    26    1
    17    26    27    1
    18    21    22    1
    19    22    23    1
    20     4     5   ar
    21     5     6   ar
    22    11    12    2
    23    12    13    1
    24    13    14   am
    25    14    15    2
    26    14     8    1
    27     6     1   ar
    28    23    18    1
    29    27    24    1
    30    13    16    1
@<TRIPOS>MOLECULE
*****
 27 30 0 0 0
SMALL
GASTEIGER

@<TRIPOS>ATOM
      1 C          65.5502   92.1840   12.5721 C.ar    1  UNL1        0.0153
      2 C          64.2939   91.4707   12.1684 C.ar    1  UNL1        0.0043
      3 C          63.8033   90.3028   12.9717 C.ar    1  UNL1        0.0369
      4 C          64.5691   89.8482   14.1788 C.ar    1  UNL1        0.1384
      5 C          65.8254   90.5615   14.5825 C.ar    1  UNL1        0.0369
      6 C          66.3159   91.7294   13.7791 C.ar    1  UNL1        0.0043
      7 C          67.9886   95.0641    8.6143 C.3     1  UNL1        0.0095
      8 C          67.3149   94.2886    9.7074 C.3     1  UNL1        0.0761
      9 C          67.8421   93.1588    8.8732 C.3     1  UNL1        0.0095
     10 C          66.8244   93.1207   10.5108 C.3     1  UNL1        0.0560
     11 C          66.0407   93.3519   11.7687 C.2     1  UNL1        0.0767
     12 N          65.7476   94.7510   12.2233 N.2     1  UNL1       -0.1836
     13 N          66.2381   95.9188   11.4199 N.am    1  UNL1       -0.2062
     14 C          67.0218   95.6876   10.1620 C.2     1  UNL1        0.2405
     15 O          67.5123   96.8556    9.3586 O.2     1  UNL1       -0.2734
     16 H          66.0457   96.8371   11.7182 H       1  UNL1        0.1772
     17 O          64.0785   88.6803   14.9821 O.3     1  UNL1       -0.4791
     18 C          63.9151   87.3384   14.3320 C.3     1  UNL1        0.1687
     19 C          64.3579   86.0982   15.0501 C.3     1  UNL1        0.0609
     20 C          64.1945   84.7563   14.3999 C.3     1  UNL1        0.0758
     21 N          63.5884   84.6547   13.0317 N.3     1  UNL1       -0.2737
     22 C          63.1456   85.8949   12.3135 C.3     1  UNL1        0.0758
     23 C          63.3090   87.2368   12.9637 C.3     1  UNL1        0.0609
     24 C          63.4250   83.3128   12.3815 C.3     1  UNL1        0.0575
     25 C          62.5134   82.1392   12.5858 C.3     1  UNL1        0.0160
     26 C          63.1939   81.4152   11.4620 C.3     1  UNL1        0.0028
     27 C          64.1055   82.5888   11.2577 C.3     1  UNL1        0.0160
@<TRIPOS>BOND
     1     7     8    1
     2     8     9    1
     3     8    10    1
     4    10    11    1
     5    11     1    1
     6     1     2   ar
     7     2     3   ar
     8     3     4   ar
     9     4    17    1
    10    17    18    1
    11    18    19    1
    12    19    20    1
    13    20    21    1
    14    21    24    1
    15    24    25    1
    16    25    26    1
    17    26    27    1
    18    21    22    1
    19    22    23    1
    20     4     5   ar
    21     5     6   ar
    22    11    12    2
    23    12    13    1
    24    13    14   am
    25    14    15    2
    26    14     8    1
    27     6     1   ar
    28    23    18    1
    29    27    24    1
    30    13    16    1
@<TRIPOS>MOLECULE
*****
 27 30 0 0 0
SMALL
GASTEIGER

@<TRIPOS>ATOM
      1 C          62.7891   85.2601   11.8480 C.ar    1  UNL1        0.0153
      2 C          63.4988   85.9722   12.9612 C.ar    1  UNL1        0.0043
      3 C          63.4848   87.4709   13.0220 C.ar    1  UNL1        0.0369
      4 C          62.7612   88.2575   11.9695 C.ar    1  UNL1        0.1384
      5 C          62.0515   87.5454   10.8563 C.ar    1  UNL1        0.0369
      6 C          62.0655   86.0466   10.7955 C.ar    1  UNL1        0.0043
      7 C          62.1658   80.0305   13.3205 C.3     1  UNL1        0.0095
      8 C          62.3427   81.4600   12.9015 C.3     1  UNL1        0.0761
      9 C          61.7929   81.6596   14.2828 C.3     1  UNL1        0.0095
     10 C          62.3288   82.9586   12.9622 C.3     1  UNL1        0.0560
     11 C          62.8031   83.7613   11.7872 C.2     1  UNL1        0.0767
     12 N          63.2915   83.0653   10.5515 N.2     1  UNL1       -0.1836
     13 N          63.3055   81.5666   10.4908 N.am    1  UNL1       -0.2062
     14 C          62.8311   80.7640   11.6658 C.2     1  UNL1        0.2405
     15 O          62.8451   79.2652   11.6051 O.2     1  UNL1       -0.2734
     16 H          63.6260   81.1098    9.6797 H       1  UNL1        0.1772
     17 O          62.7472   89.7562   12.0303 O.3     1  UNL1       -0.4791
     18 C          63.8298   90.4870   12.7677 C.3     1  UNL1        0.1687
     19 C          64.5830   91.5936   12.0908 C.3     1  UNL1        0.0609
     20 C          65.6656   92.3244   12.8282 C.3     1  UNL1        0.0758
     21 N          65.9951   91.9487   14.2425 N.3     1  UNL1       -0.2737
     22 C          65.2419   90.8421   14.9194 C.3     1  UNL1        0.0758
     23 C          64.1593   90.1113   14.1820 C.3     1  UNL1        0.0609
     24 C          67.0777   92.6796   14.9799 C.3     1  UNL1        0.0575
     25 C          68.0440   92.3243   16.0708 C.3     1  UNL1        0.0160
     26 C          68.6087   93.7131   16.0228 C.3     1  UNL1        0.0028
     27 C          67.6425   94.0684   14.9319 C.3     1  UNL1        0.0160
@<TRIPOS>BOND
     1     7     8    1
     2     8     9    1
     3     8    10    1
     4    10    11    1
     5    11     1    1
     6     1     2   ar
     7     2     3   ar
     8     3     4   ar
     9     4    17    1
    10    17    18    1
    11    18    19    1
    12    19    20    1
    13    20    21    1
    14    21    24    1
    15    24    25    1
    16    25    26    1
    17    26    27    1
    18    21    22    1
    19    22    23    1
    20     4     5   ar
    21     5     6   ar
    22    11    12    2
    23    12    13    1
    24    13    14   am
    25    14    15    2
    26    14     8    1
    27     6     1   ar
    28    23    18    1
    29    27    24    1
    30    13    16    1
@<TRIPOS>MOLECULE
*****
 27 30 0 0 0
SMALL
GASTEIGER

@<TRIPOS>ATOM
      1 C          64.6707   90.8006   14.5622 C.ar    1  UNL1        0.0153
      2 C          64.0141   91.0112   15.8943 C.ar    1  UNL1        0.0043
      3 C          63.4780   89.8381   16.6601 C.ar    1  UNL1        0.0369
      4 C          63.5985   88.4543   16.0937 C.ar    1  UNL1        0.1384
      5 C          64.2551   88.2437   14.7616 C.ar    1  UNL1        0.0369
      6 C          64.7912   89.4169   13.9958 C.ar    1  UNL1        0.0043
      7 C          65.8384   94.1446   10.3957 C.3     1  UNL1        0.0095
      8 C          65.5261   93.2379   11.5492 C.3     1  UNL1        0.0761
      9 C          64.8817   92.4706   10.4329 C.3     1  UNL1        0.0095
     10 C          64.9900   92.0648   12.3150 C.3     1  UNL1        0.0560
     11 C          65.2068   91.9738   13.7964 C.2     1  UNL1        0.0767
     12 N          65.9596   93.0559   14.5121 N.2     1  UNL1       -0.1836
     13 N          66.4956   94.2290   13.7464 N.am    1  UNL1       -0.2062
     14 C          66.2789   94.3200   12.2649 C.2     1  UNL1        0.2405
     15 O          66.8150   95.4932   11.4991 O.2     1  UNL1       -0.2734
     16 H          66.9897   94.9393   14.2161 H       1  UNL1        0.1772
     17 O          63.0624   87.2813   16.8595 O.3     1  UNL1       -0.4791
     18 C          62.9619   85.9377   16.2000 C.3     1  UNL1        0.1687
     19 C          61.6160   85.3286   15.9401 C.3     1  UNL1        0.0609
     20 C          61.5155   83.9851   15.2807 C.3     1  UNL1        0.0758
     21 N          62.7609   83.2507   14.8812 N.3     1  UNL1       -0.2737
     22 C          64.1068   83.8598   15.1411 C.3     1  UNL1        0.0758
     23 C          64.2073   85.2033   15.8005 C.3     1  UNL1        0.0609
     24 C          62.6604   81.9071   14.2218 C.3     1  UNL1        0.0575
     25 C          63.6354   80.9647   13.5804 C.3     1  UNL1        0.0160
     26 C          62.5182   80.0071   13.2892 C.3     1  UNL1        0.0028
     27 C          61.5432   80.9494   13.9305 C.3     1  UNL1        0.0160
@<TRIPOS>BOND
     1     7     8    1
     2     8     9    1
     3     8    10    1
     4    10    11    1
     5    11     1    1
     6     1     2   ar
     7     2     3   ar
     8     3     4   ar
     9     4    17    1
    10    17    18    1
    11    18    19    1
    12    19    20    1
    13    20    21    1
    14    21    24    1
    15    24    25    1
    16    25    26    1
    17    26    27    1
    18    21    22    1
    19    22    23    1
    20     4     5   ar
    21     5     6   ar
    22    11    12    2
    23    12    13    1
    24    13    14   am
    25    14    15    2
    26    14     8    1
    27     6     1   ar
    28    23    18    1
    29    27    24    1
    30    13    16    1
@<TRIPOS>MOLECULE
*****
 27 30 0 0 0
SMALL
GASTEIGER

@<TRIPOS>ATOM
      1 C          60.8331   86.9653    9.4699 C.ar    1  UNL1        0.0153
      2 C          60.8596   88.4579    9.6170 C.ar    1  UNL1        0.0043
      3 C          60.0294   89.3159    8.7091 C.ar    1  UNL1        0.0369
      4 C          59.1725   88.6814    7.6539 C.ar    1  UNL1        0.1384
      5 C          59.1460   87.1889    7.5068 C.ar    1  UNL1        0.0369
      6 C          59.9763   86.3308    8.4148 C.ar    1  UNL1        0.0043
      7 C          64.3859   83.1638   11.1525 C.3     1  UNL1        0.0095
      8 C          63.4084   84.2108   10.7071 C.3     1  UNL1        0.0761
      9 C          63.8323   83.6667    9.3751 C.3     1  UNL1        0.0095
     10 C          62.5781   85.0688    9.7992 C.3     1  UNL1        0.0560
     11 C          61.6634   86.1073   10.3779 C.2     1  UNL1        0.0767
     12 N          61.5790   86.2878   11.8646 N.2     1  UNL1       -0.1836
     13 N          62.4093   85.4298   12.7725 N.am    1  UNL1       -0.2062
     14 C          63.3240   84.3913   12.1938 C.2     1  UNL1        0.2405
     15 O          64.1543   83.5333   13.1018 O.2     1  UNL1       -0.2734
     16 H          62.3540   85.5482   13.7483 H       1  UNL1        0.1772
     17 O          58.3423   89.5394    6.7460 O.3     1  UNL1       -0.4791
     18 C          59.0081   90.4234    5.7335 C.3     1  UNL1        0.1687
     19 C          60.4799   90.2922    5.4757 C.3     1  UNL1        0.0609
     20 C          61.1457   91.1763    4.4632 C.3     1  UNL1        0.0758
     21 N          60.3398   92.1915    3.7085 N.3     1  UNL1       -0.2737
     22 C          58.8680   92.3228    3.9663 C.3     1  UNL1        0.0758
     23 C          58.2021   91.4387    4.9788 C.3     1  UNL1        0.0609
     24 C          61.0056   93.0756    2.6960 C.3     1  UNL1        0.0575
     25 C          62.3638   93.1253    2.0612 C.3     1  UNL1        0.0160
     26 C          61.9472   94.3258    1.2642 C.3     1  UNL1        0.0028
     27 C          60.5891   94.2762    1.8990 C.3     1  UNL1        0.0160
@<TRIPOS>BOND
     1     7     8    1
     2     8     9    1
     3     8    10    1
     4    10    11    1
     5    11     1    1
     6     1     2   ar
     7     2     3   ar
     8     3     4   ar
     9     4    17    1
    10    17    18    1
    11    18    19    1
    12    19    20    1
    13    20    21    1
    14    21    24    1
    15    24    25    1
    16    25    26    1
    17    26    27    1
    18    21    22    1
    19    22    23    1
    20     4     5   ar
    21     5     6   ar
    22    11    12    2
    23    12    13    1
    24    13    14   am
    25    14    15    2
    26    14     8    1
    27     6     1   ar
    28    23    18    1
    29    27    24    1
    30    13    16    1
@<TRIPOS>MOLECULE
*****
 27 30 0 0 0
SMALL
GASTEIGER

@<TRIPOS>ATOM
      1 C          64.3762   91.1127   13.8454 C.ar    1  UNL1        0.0153
      2 C          64.0633   91.3758   12.4022 C.ar    1  UNL1        0.0043
      3 C          62.8724   90.7259   11.7625 C.ar    1  UNL1        0.0369
      4 C          61.9943   89.8129   12.5660 C.ar    1  UNL1        0.1384
      5 C          62.3072   89.5499   14.0092 C.ar    1  UNL1        0.0369
      6 C          63.4982   90.1998   14.6489 C.ar    1  UNL1        0.0043
      7 C          69.5165   92.7842   14.6759 C.3     1  UNL1        0.0095
      8 C          68.1018   92.3331   14.4626 C.3     1  UNL1        0.0761
      9 C          68.7457   91.7604   13.2348 C.3     1  UNL1        0.0095
     10 C          66.9108   91.6833   13.8230 C.3     1  UNL1        0.0560
     11 C          65.5673   91.7627   14.4851 C.2     1  UNL1        0.0767
     12 N          65.4146   92.4920   15.7870 N.2     1  UNL1       -0.1836
     13 N          66.6056   93.1418   16.4266 N.am    1  UNL1       -0.2062
     14 C          67.9492   93.0624   15.7644 C.2     1  UNL1        0.2405
     15 O          69.1402   93.7124   16.4042 O.2     1  UNL1       -0.2734
     16 H          66.5055   93.6205   17.2811 H       1  UNL1        0.1772
     17 O          60.8034   89.1631   11.9262 O.3     1  UNL1       -0.4791
     18 C          60.9922   88.2145   10.7797 C.3     1  UNL1        0.1687
     19 C          61.9972   87.1056   10.8815 C.3     1  UNL1        0.0609
     20 C          62.1861   86.1570    9.7350 C.3     1  UNL1        0.0758
     21 N          61.3700   86.3173    8.4867 N.3     1  UNL1       -0.2737
     22 C          60.3650   87.4262    8.3849 C.3     1  UNL1        0.0758
     23 C          60.1762   88.3748    9.5314 C.3     1  UNL1        0.0609
     24 C          61.5588   85.3687    7.3402 C.3     1  UNL1        0.0575
     25 C          60.6415   84.6550    6.3918 C.3     1  UNL1        0.0160
     26 C          61.8259   84.0272    5.7188 C.3     1  UNL1        0.0028
     27 C          62.7433   84.7408    6.6671 C.3     1  UNL1        0.0160
@<TRIPOS>BOND
     1     7     8    1
     2     8     9    1
     3     8    10    1
     4    10    11    1
     5    11     1    1
     6     1     2   ar
     7     2     3   ar
     8     3     4   ar
     9     4    17    1
    10    17    18    1
    11    18    19    1
    12    19    20    1
    13    20    21    1
    14    21    24    1
    15    24    25    1
    16    25    26    1
    17    26    27    1
    18    21    22    1
    19    22    23    1
    20     4     5   ar
    21     5     6   ar
    22    11    12    2
    23    12    13    1
    24    13    14   am
    25    14    15    2
    26    14     8    1
    27     6     1   ar
    28    23    18    1
    29    27    24    1
    30    13    16    1
@<TRIPOS>MOLECULE
*****
 27 30 0 0 0
SMALL
GASTEIGER

@<TRIPOS>ATOM
      1 C          62.8864   85.6985   12.6521 C.ar    1  UNL1        0.0153
      2 C          63.6776   86.4701   13.6663 C.ar    1  UNL1        0.0043
      3 C          63.8296   87.9558   13.5266 C.ar    1  UNL1        0.0369
      4 C          63.1903   88.6700   12.3728 C.ar    1  UNL1        0.1384
      5 C          62.3990   87.8984   11.3586 C.ar    1  UNL1        0.0369
      6 C          62.2471   86.4126   11.4983 C.ar    1  UNL1        0.0043
      7 C          62.9720   80.3667   11.4399 C.3     1  UNL1        0.0095
      8 C          62.9425   81.8255   11.7879 C.3     1  UNL1        0.0761
      9 C          63.4648   81.9032   10.3838 C.3     1  UNL1        0.0095
     10 C          63.0945   83.3113   11.6482 C.3     1  UNL1        0.0560
     11 C          62.7344   84.2128   12.7918 C.2     1  UNL1        0.0767
     12 N          62.2225   83.6285   14.0749 N.2     1  UNL1       -0.1836
     13 N          62.0705   82.1428   14.2145 N.am    1  UNL1       -0.2062
     14 C          62.4306   81.2413   13.0710 C.2     1  UNL1        0.2405
     15 O          62.2786   79.7556   13.2107 O.2     1  UNL1       -0.2734
     16 H          61.7345   81.7594   15.0567 H       1  UNL1        0.1772
     17 O          63.3422   90.1557   12.2331 O.3     1  UNL1       -0.4791
     18 C          64.4410   90.8692   12.9637 C.3     1  UNL1        0.1687
     19 C          65.4474   91.6779   12.2001 C.3     1  UNL1        0.0609
     20 C          66.5462   92.3914   12.9307 C.3     1  UNL1        0.0758
     21 N          66.6385   92.2962   14.4248 N.3     1  UNL1       -0.2737
     22 C          65.6320   91.4875   15.1883 C.3     1  UNL1        0.0758
     23 C          64.5333   90.7740   14.4578 C.3     1  UNL1        0.0609
     24 C          67.7372   93.0097   15.1553 C.3     1  UNL1        0.0575
     25 C          68.1050   94.4471   15.3763 C.3     1  UNL1        0.0160
     26 C          69.2911   94.0187   16.1884 C.3     1  UNL1        0.0028
     27 C          68.9234   92.5814   15.9675 C.3     1  UNL1        0.0160
@<TRIPOS>BOND
     1     7     8    1
     2     8     9    1
     3     8    10    1
     4    10    11    1
     5    11     1    1
     6     1     2   ar
     7     2     3   ar
     8     3     4   ar
     9     4    17    1
    10    17    18    1
    11    18    19    1
    12    19    20    1
    13    20    21    1
    14    21    24    1
    15    24    25    1
    16    25    26    1
    17    26    27    1
    18    21    22    1
    19    22    23    1
    20     4     5   ar
    21     5     6   ar
    22    11    12    2
    23    12    13    1
    24    13    14   am
    25    14    15    2
    26    14     8    1
    27     6     1   ar
    28    23    18    1
    29    27    24    1
    30    13    16    1
