@<TRIPOS>MOLECULE
*****
 49 55 0 0 0
SMALL
GASTEIGER

@<TRIPOS>ATOM
      1 C          60.5463   88.2188    8.7071 C.3     1  UNL1        0.1543
      2 N          60.6573   89.1386    7.5274 N.am    1  UNL1       -0.2822
      3 C          59.4181   89.6228    6.8347 C.2     1  UNL1        0.3043
      4 O          58.0678   89.1873    7.3216 O.2     1  UNL1       -0.2526
      5 N          59.5291   90.5425    5.6550 N.am    1  UNL1       -0.2641
      6 C          58.2898   91.0268    4.9623 C.3     1  UNL1        0.0966
      7 C          58.4009   91.9466    3.7825 C.3     1  UNL1        0.0415
      8 C          59.7511   92.3821    3.2956 C.3     1  UNL1        0.0806
      9 C          60.9903   91.8978    3.9883 C.3     1  UNL1        0.0415
     10 C          60.8793   90.9781    5.1679 C.3     1  UNL1        0.0966
     11 H          61.5435   89.4244    7.2077 H       1  UNL1        0.1514
     12 N          59.8621   93.3018    2.1159 N.am    1  UNL1       -0.2613
     13 C          59.8555   92.7413    0.7246 C.3     1  UNL1        0.1228
     14 C          59.9665   93.6611   -0.4552 C.ar    1  UNL1        0.0112
     15 C          59.9600   93.1005   -1.8465 C.ar    1  UNL1       -0.0014
     16 C          60.0710   94.0203   -3.0261 C.ar    1  UNL1       -0.0002
     17 C          60.1886   95.5007   -2.8146 C.ar    1  UNL1        0.0013
     18 C          60.1951   96.0612   -1.4233 C.ar    1  UNL1        0.0144
     19 C          60.0841   95.1414   -0.2435 C.ar    1  UNL1        0.0492
     20 N          60.0907   95.7020    1.1478 N.am    1  UNL1       -0.2684
     21 C          59.9797   94.7822    2.3275 C.2     1  UNL1        0.3079
     22 O          59.9863   95.3428    3.7188 O.2     1  UNL1       -0.2522
     23 H          60.1679   96.6736    1.2867 H       1  UNL1        0.1564
     24 C          60.3229   88.7824   10.0791 C.2     1  UNL1        0.2439
     25 O          59.0048   88.5822   10.7667 O.2     1  UNL1       -0.2731
     26 N          61.4174   89.5462   10.7635 N.am    1  UNL1       -0.2781
     27 C          62.7354   89.7464   10.0759 C.3     1  UNL1        0.0948
     28 C          63.8301   90.5102   10.7604 C.3     1  UNL1        0.0375
     29 C          63.6067   91.0738   12.1324 C.3     1  UNL1        0.0609
     30 C          62.2886   90.8735   12.8200 C.3     1  UNL1        0.0375
     31 C          61.1940   90.1098   12.1356 C.3     1  UNL1        0.0948
     32 N          64.7012   91.8375   12.8169 N.3     1  UNL1       -0.2738
     33 C          65.1231   91.4608   14.2061 C.3     1  UNL1        0.0720
     34 C          66.2177   92.2246   14.8906 C.3     1  UNL1        0.0174
     35 C          66.8904   93.3651   14.1858 C.3     1  UNL1        0.0029
     36 C          66.4685   93.7418   12.7965 C.3     1  UNL1        0.0174
     37 C          65.3740   92.9780   12.1120 C.3     1  UNL1        0.0720
     38 C          60.6587   86.7354    8.5147 C.3     1  UNL1        0.0562
     39 C          62.0890   85.4264   13.3356 C.3     1  UNL1        0.0287
     40 C          62.2291   85.2673   11.8507 C.2     1  UNL1       -0.0163
     41 C          61.3738   86.0809   10.9252 C.2     1  UNL1       -0.0096
     42 C          61.5139   85.9218    9.4402 C.2     1  UNL1       -0.0102
     43 C          62.5094   84.9491    8.8808 C.2     1  UNL1        0.0535
     44 CL         62.6495   84.7899    7.3959 Cl      1  UNL1       -0.0828
     45 C          63.3647   84.1355    9.8063 C.2     1  UNL1        0.0367
     46 C          64.4242   83.1054    9.5485 C.2     1  UNL1        0.1205
     47 N          64.9389   82.6280   10.8740 N.2     1  UNL1       -0.1507
     48 N          64.1974   83.3629   11.9511 N.2     1  UNL1       -0.1677
     49 C          63.2245   84.2946   11.2912 C.3     1  UNL1        0.1680
@<TRIPOS>BOND
     1    39    40    1
     2    40    41    2
     3    41    42    1
     4    42    38    1
     5     1    38    1
     6     1     2    1
     7     2     3   am
     8     3     4    2
     9     3     5   am
    10     5     6    1
    11     6     7    1
    12     7     8    1
    13     8    12    1
    14    12    13    1
    15    13    14    1
    16    14    15   ar
    17    15    16   ar
    18    16    17   ar
    19    17    18   ar
    20    18    19   ar
    21    19    20    1
    22    20    21   am
    23    21    22    2
    24     8     9    1
    25     9    10    1
    26     1    24    1
    27    24    25    2
    28    24    26   am
    29    26    27    1
    30    27    28    1
    31    28    29    1
    32    29    32    1
    33    32    33    1
    34    33    34    1
    35    34    35    1
    36    35    36    1
    37    36    37    1
    38    29    30    1
    39    30    31    1
    40    42    43    2
    41    43    44    1
    42    43    45    1
    43    45    46    2
    44    46    47    1
    45    47    48    2
    46    48    49    1
    47    49    40    1
    48    10     5    1
    49    31    26    1
    50    49    45    1
    51    21    12   am
    52    37    32    1
    53    19    14   ar
    54     2    11    1
    55    20    23    1
@<TRIPOS>MOLECULE
*****
 49 55 0 0 0
SMALL
GASTEIGER

@<TRIPOS>ATOM
      1 C          60.0080   88.9489    8.5384 C.3     1  UNL1        0.1543
      2 N          60.3738   89.7563    7.3284 N.am    1  UNL1       -0.2822
      3 C          59.2981   90.2881    6.4283 C.2     1  UNL1        0.3043
      4 O          57.8566   90.0125    6.7383 O.2     1  UNL1       -0.2526
      5 N          59.6639   91.0955    5.2183 N.am    1  UNL1       -0.2641
      6 C          58.5882   91.6272    4.3182 C.3     1  UNL1        0.0966
      7 C          58.9540   92.4347    3.1081 C.3     1  UNL1        0.0415
      8 C          60.3955   92.7103    2.7981 C.3     1  UNL1        0.0806
      9 C          61.4712   92.1785    3.6981 C.3     1  UNL1        0.0415
     10 C          61.1054   91.3711    4.9082 C.3     1  UNL1        0.0966
     11 H          61.3199   89.9372    7.1249 H       1  UNL1        0.1514
     12 N          60.7613   93.5176    1.5880 N.am    1  UNL1       -0.2613
     13 C          61.3451   92.8410    0.3833 C.3     1  UNL1        0.1228
     14 C          61.7109   93.6485   -0.8268 C.ar    1  UNL1        0.0112
     15 C          62.2947   92.9718   -2.0315 C.ar    1  UNL1       -0.0014
     16 C          62.6605   93.7792   -3.2416 C.ar    1  UNL1       -0.0002
     17 C          62.4424   95.2633   -3.2470 C.ar    1  UNL1        0.0013
     18 C          61.8586   95.9400   -2.0423 C.ar    1  UNL1        0.0144
     19 C          61.4928   95.1325   -0.8322 C.ar    1  UNL1        0.0492
     20 N          60.9090   95.8091    0.3725 N.am    1  UNL1       -0.2684
     21 C          60.5432   95.0018    1.5826 C.2     1  UNL1        0.3079
     22 O          59.9594   95.6784    2.7873 O.2     1  UNL1       -0.2522
     23 H          60.7659   96.7832    0.3690 H       1  UNL1        0.1564
     24 C          59.9477   89.6035    9.8867 C.2     1  UNL1        0.2439
     25 O          58.6257   89.7941   10.5694 O.2     1  UNL1       -0.2731
     26 N          61.2093   90.0676   10.5522 N.am    1  UNL1       -0.2781
     27 C          62.5312   89.8771    9.8695 C.3     1  UNL1        0.0948
     28 C          63.7929   90.3411   10.5350 C.3     1  UNL1        0.0375
     29 C          63.7326   90.9958   11.8833 C.3     1  UNL1        0.0609
     30 C          62.4105   91.1863   12.5660 C.3     1  UNL1        0.0375
     31 C          61.1490   90.7223   11.9005 C.3     1  UNL1        0.0948
     32 N          64.9941   91.4599   12.5488 N.3     1  UNL1       -0.2738
     33 C          65.9541   92.3405   11.8052 C.3     1  UNL1        0.0720
     34 C          67.2158   92.8046   12.4708 C.3     1  UNL1        0.0174
     35 C          67.5174   92.3880   13.8799 C.3     1  UNL1        0.0029
     36 C          66.5574   91.5074   14.6234 C.3     1  UNL1        0.0174
     37 C          65.2958   91.0433   13.9579 C.3     1  UNL1        0.0720
     38 C          59.7026   87.4868    8.4003 C.3     1  UNL1        0.0562
     39 C          63.0890   84.1433    6.3138 C.3     1  UNL1        0.0287
     40 C          62.4894   84.8016    7.5209 C.2     1  UNL1       -0.0163
     41 C          61.3957   85.8151    7.3570 C.2     1  UNL1       -0.0096
     42 C          60.7962   86.4734    8.5641 C.2     1  UNL1       -0.0102
     43 C          61.2903   86.1182    9.9352 C.2     1  UNL1        0.0535
     44 CL         60.6908   86.7765   11.1423 Cl      1  UNL1       -0.0828
     45 C          62.3839   85.1048   10.0991 C.2     1  UNL1        0.0367
     46 C          63.0705   84.5567   11.3149 C.2     1  UNL1        0.1205
     47 N          64.0944   83.5597   10.8592 N.2     1  UNL1       -0.1507
     48 N          64.0406   83.4916    9.3617 N.2     1  UNL1       -0.1677
     49 C          62.9835   84.4465    8.8919 C.3     1  UNL1        0.1680
@<TRIPOS>BOND
     1    39    40    1
     2    40    41    2
     3    41    42    1
     4    42    38    1
     5     1    38    1
     6     1     2    1
     7     2     3   am
     8     3     4    2
     9     3     5   am
    10     5     6    1
    11     6     7    1
    12     7     8    1
    13     8    12    1
    14    12    13    1
    15    13    14    1
    16    14    15   ar
    17    15    16   ar
    18    16    17   ar
    19    17    18   ar
    20    18    19   ar
    21    19    20    1
    22    20    21   am
    23    21    22    2
    24     8     9    1
    25     9    10    1
    26     1    24    1
    27    24    25    2
    28    24    26   am
    29    26    27    1
    30    27    28    1
    31    28    29    1
    32    29    32    1
    33    32    33    1
    34    33    34    1
    35    34    35    1
    36    35    36    1
    37    36    37    1
    38    29    30    1
    39    30    31    1
    40    42    43    2
    41    43    44    1
    42    43    45    1
    43    45    46    2
    44    46    47    1
    45    47    48    2
    46    48    49    1
    47    49    40    1
    48    10     5    1
    49    31    26    1
    50    49    45    1
    51    21    12   am
    52    37    32    1
    53    19    14   ar
    54     2    11    1
    55    20    23    1
@<TRIPOS>MOLECULE
*****
 49 55 0 0 0
SMALL
GASTEIGER

@<TRIPOS>ATOM
      1 C          59.4446   88.9893    7.4814 C.3     1  UNL1        0.1543
      2 N          60.5894   89.6075    8.2278 N.am    1  UNL1       -0.2822
      3 C          60.5466   89.6996    9.7244 C.2     1  UNL1        0.3043
      4 O          59.3589   89.1736   10.4745 O.2     1  UNL1       -0.2526
      5 N          61.6914   90.3177   10.4708 N.am    1  UNL1       -0.2641
      6 C          61.6486   90.4098   11.9673 C.3     1  UNL1        0.0966
      7 C          62.7936   91.0279   12.7138 C.3     1  UNL1        0.0415
      8 C          63.9812   91.5539   11.9637 C.3     1  UNL1        0.0806
      9 C          64.0240   91.4618   10.4671 C.3     1  UNL1        0.0415
     10 C          62.8792   90.8437    9.7207 C.3     1  UNL1        0.0966
     11 H          61.3689   89.9527    7.7355 H       1  UNL1        0.1514
     12 N          65.1261   92.1721   12.7101 N.am    1  UNL1       -0.2613
     13 C          65.6586   91.5118   13.9472 C.3     1  UNL1        0.1228
     14 C          66.8035   92.1300   14.6936 C.ar    1  UNL1        0.0112
     15 C          67.3361   91.4697   15.9308 C.ar    1  UNL1       -0.0014
     16 C          68.4809   92.0878   16.6772 C.ar    1  UNL1       -0.0002
     17 C          69.0933   93.3663   16.1865 C.ar    1  UNL1        0.0013
     18 C          68.5608   94.0265   14.9494 C.ar    1  UNL1        0.0144
     19 C          67.4159   93.4083   14.2030 C.ar    1  UNL1        0.0492
     20 N          66.8833   94.0686   12.9658 N.am    1  UNL1       -0.2684
     21 C          65.7385   93.4505   12.2194 C.2     1  UNL1        0.3079
     22 O          65.2059   94.1107   10.9823 O.2     1  UNL1       -0.2522
     23 H          67.2852   94.9076   12.6438 H       1  UNL1        0.1564
     24 C          58.5927   89.8343    6.5811 C.2     1  UNL1        0.2439
     25 O          57.1010   89.8302    6.7392 O.2     1  UNL1       -0.2731
     26 N          59.2324   90.6832    5.5228 N.am    1  UNL1       -0.2781
     27 C          60.7240   90.6872    5.3648 C.3     1  UNL1        0.0948
     28 C          61.3638   91.5362    4.3064 C.3     1  UNL1        0.0375
     29 C          60.5119   92.3811    3.4062 C.3     1  UNL1        0.0609
     30 C          59.0202   92.3770    3.5643 C.3     1  UNL1        0.0375
     31 C          58.3805   91.5281    4.6226 C.3     1  UNL1        0.0948
     32 N          61.1516   93.2300    2.3479 N.3     1  UNL1       -0.2738
     33 C          60.4782   94.4888    1.8877 C.3     1  UNL1        0.0720
     34 C          61.1180   95.3378    0.8293 C.3     1  UNL1        0.0174
     35 C          62.4311   94.9279    0.2313 C.3     1  UNL1        0.0029
     36 C          63.1045   93.6690    0.6916 C.3     1  UNL1        0.0174
     37 C          62.4648   92.8201    1.7499 C.3     1  UNL1        0.0720
     38 C          59.1515   87.5263    7.6352 C.3     1  UNL1        0.0562
     39 C          62.7008   84.1771    5.8501 C.3     1  UNL1        0.0287
     40 C          62.0448   84.8855    6.9981 C.2     1  UNL1       -0.0163
     41 C          60.9261   85.8517    6.7426 C.2     1  UNL1       -0.0096
     42 C          60.2701   86.5601    7.8906 C.2     1  UNL1       -0.0102
     43 C          60.7328   86.3024    9.2940 C.2     1  UNL1        0.0535
     44 CL         60.0768   87.0108   10.4420 Cl      1  UNL1       -0.0828
     45 C          61.8514   85.3363    9.5494 C.2     1  UNL1        0.0367
     46 C          62.5170   84.8831   10.8150 C.2     1  UNL1        0.1205
     47 N          63.5843   83.8947   10.4492 N.2     1  UNL1       -0.1507
     48 N          63.5784   83.7369    8.9576 N.2     1  UNL1       -0.1677
     49 C          62.5074   84.6278    8.4014 C.3     1  UNL1        0.1680
@<TRIPOS>BOND
     1    39    40    1
     2    40    41    2
     3    41    42    1
     4    42    38    1
     5     1    38    1
     6     1     2    1
     7     2     3   am
     8     3     4    2
     9     3     5   am
    10     5     6    1
    11     6     7    1
    12     7     8    1
    13     8    12    1
    14    12    13    1
    15    13    14    1
    16    14    15   ar
    17    15    16   ar
    18    16    17   ar
    19    17    18   ar
    20    18    19   ar
    21    19    20    1
    22    20    21   am
    23    21    22    2
    24     8     9    1
    25     9    10    1
    26     1    24    1
    27    24    25    2
    28    24    26   am
    29    26    27    1
    30    27    28    1
    31    28    29    1
    32    29    32    1
    33    32    33    1
    34    33    34    1
    35    34    35    1
    36    35    36    1
    37    36    37    1
    38    29    30    1
    39    30    31    1
    40    42    43    2
    41    43    44    1
    42    43    45    1
    43    45    46    2
    44    46    47    1
    45    47    48    2
    46    48    49    1
    47    49    40    1
    48    10     5    1
    49    31    26    1
    50    49    45    1
    51    21    12   am
    52    37    32    1
    53    19    14   ar
    54     2    11    1
    55    20    23    1
@<TRIPOS>MOLECULE
*****
 49 55 0 0 0
SMALL
GASTEIGER

@<TRIPOS>ATOM
      1 C          60.2933   89.3620    8.1383 C.3     1  UNL1        0.1543
      2 N          60.6716   90.1049    6.8913 N.am    1  UNL1       -0.2822
      3 C          59.6041   90.6681    6.0008 C.2     1  UNL1        0.3043
      4 O          58.1582   90.4884    6.3572 O.2     1  UNL1       -0.2526
      5 N          59.9824   91.4110    4.7538 N.am    1  UNL1       -0.2641
      6 C          58.9148   91.9742    3.8633 C.3     1  UNL1        0.0966
      7 C          59.2931   92.7171    2.6163 C.3     1  UNL1        0.0415
      8 C          60.7390   92.8968    2.2599 C.3     1  UNL1        0.0806
      9 C          61.8066   92.3335    3.1504 C.3     1  UNL1        0.0415
     10 C          61.4283   91.5907    4.3973 C.3     1  UNL1        0.0966
     11 H          61.6206   90.2228    6.6574 H       1  UNL1        0.1514
     12 N          61.1173   93.6397    1.0129 N.am    1  UNL1       -0.2613
     13 C          61.6954   92.8980   -0.1558 C.3     1  UNL1        0.1228
     14 C          62.0737   93.6410   -1.4028 C.ar    1  UNL1        0.0112
     15 C          62.6517   92.8993   -2.5715 C.ar    1  UNL1       -0.0014
     16 C          63.0300   93.6422   -3.8184 C.ar    1  UNL1       -0.0002
     17 C          62.8303   95.1268   -3.8968 C.ar    1  UNL1        0.0013
     18 C          62.2522   95.8685   -2.7281 C.ar    1  UNL1        0.0144
     19 C          61.8739   95.1255   -1.4811 C.ar    1  UNL1        0.0492
     20 N          61.2959   95.8672   -0.3124 N.am    1  UNL1       -0.2684
     21 C          60.9176   95.1243    0.9346 C.2     1  UNL1        0.3079
     22 O          60.3395   95.8660    2.1032 O.2     1  UNL1       -0.2522
     23 H          61.1648   96.8416   -0.3638 H       1  UNL1        0.1564
     24 C          60.1538   87.8688    8.1086 C.2     1  UNL1        0.2439
     25 O          59.2498   87.2198    7.1027 O.2     1  UNL1       -0.2731
     26 N          60.9183   87.0245    9.0846 N.am    1  UNL1       -0.2781
     27 C          61.8223   87.6735   10.0904 C.3     1  UNL1        0.0948
     28 C          62.5868   86.8292   11.0666 C.3     1  UNL1        0.0375
     29 C          62.4473   85.3360   11.0368 C.3     1  UNL1        0.0609
     30 C          61.5433   84.6870   10.0310 C.3     1  UNL1        0.0375
     31 C          60.7788   85.5313    9.0549 C.3     1  UNL1        0.0948
     32 N          63.2118   84.4917   12.0129 N.3     1  UNL1       -0.2738
     33 C          63.6246   85.0636   13.3367 C.3     1  UNL1        0.0720
     34 C          64.3891   84.2193   14.3129 C.3     1  UNL1        0.0174
     35 C          64.7408   82.8032   13.9651 C.3     1  UNL1        0.0029
     36 C          64.3280   82.2314   12.6412 C.3     1  UNL1        0.0174
     37 C          63.5635   83.0756   11.6652 C.3     1  UNL1        0.0720
     38 C          60.0545   90.1123    9.4151 C.3     1  UNL1        0.0562
     39 C          64.7978   92.0397   10.3018 C.3     1  UNL1        0.0287
     40 C          63.5659   91.3415   10.7968 C.2     1  UNL1       -0.0163
     41 C          62.4261   91.0760    9.8584 C.2     1  UNL1       -0.0096
     42 C          61.1942   90.3778   10.3534 C.2     1  UNL1       -0.0102
     43 C          61.1021   89.9452   11.7867 C.2     1  UNL1        0.0535
     44 CL         59.8702   89.2470   12.2817 Cl      1  UNL1       -0.0828
     45 C          62.2419   90.2107   12.7250 C.2     1  UNL1        0.0367
     46 C          62.4364   89.9032   14.1802 C.2     1  UNL1        0.1205
     47 N          63.7886   90.4113   14.5846 N.2     1  UNL1       -0.1507
     48 N          64.4296   91.0328   13.3794 N.2     1  UNL1       -0.1677
     49 C          63.4738   90.9089   12.2300 C.3     1  UNL1        0.1680
@<TRIPOS>BOND
     1    39    40    1
     2    40    41    2
     3    41    42    1
     4    42    38    1
     5     1    38    1
     6     1     2    1
     7     2     3   am
     8     3     4    2
     9     3     5   am
    10     5     6    1
    11     6     7    1
    12     7     8    1
    13     8    12    1
    14    12    13    1
    15    13    14    1
    16    14    15   ar
    17    15    16   ar
    18    16    17   ar
    19    17    18   ar
    20    18    19   ar
    21    19    20    1
    22    20    21   am
    23    21    22    2
    24     8     9    1
    25     9    10    1
    26     1    24    1
    27    24    25    2
    28    24    26   am
    29    26    27    1
    30    27    28    1
    31    28    29    1
    32    29    32    1
    33    32    33    1
    34    33    34    1
    35    34    35    1
    36    35    36    1
    37    36    37    1
    38    29    30    1
    39    30    31    1
    40    42    43    2
    41    43    44    1
    42    43    45    1
    43    45    46    2
    44    46    47    1
    45    47    48    2
    46    48    49    1
    47    49    40    1
    48    10     5    1
    49    31    26    1
    50    49    45    1
    51    21    12   am
    52    37    32    1
    53    19    14   ar
    54     2    11    1
    55    20    23    1
@<TRIPOS>MOLECULE
*****
 49 55 0 0 0
SMALL
GASTEIGER

@<TRIPOS>ATOM
      1 C          59.8444   95.0757   -0.2074 C.3     1  UNL1        0.1543
      2 N          59.6990   94.2832    1.0578 N.am    1  UNL1       -0.2822
      3 C          60.8107   93.3844    1.5118 C.2     1  UNL1        0.3043
      4 O          62.0679   93.2781    0.7006 O.2     1  UNL1       -0.2526
      5 N          60.6653   92.5920    2.7770 N.am    1  UNL1       -0.2641
      6 C          61.7771   91.6932    3.2310 C.3     1  UNL1        0.0966
      7 C          61.6317   90.9007    4.4963 C.3     1  UNL1        0.0415
      8 C          60.3745   91.0070    5.3075 C.3     1  UNL1        0.0806
      9 C          59.2627   91.9058    4.8535 C.3     1  UNL1        0.0415
     10 C          59.4081   92.6983    3.5883 C.3     1  UNL1        0.0966
     11 H          58.8738   94.3530    1.5903 H       1  UNL1        0.1514
     12 N          60.2291   90.2146    6.5728 N.am    1  UNL1       -0.2613
     13 C          61.2430   90.3588    7.6688 C.3     1  UNL1        0.1228
     14 C          61.0975   89.5662    8.9340 C.ar    1  UNL1        0.0112
     15 C          62.1114   89.7104   10.0300 C.ar    1  UNL1       -0.0014
     16 C          61.9660   88.9180   11.2953 C.ar    1  UNL1       -0.0002
     17 C          60.8066   87.9813   11.4645 C.ar    1  UNL1        0.0013
     18 C          59.7927   87.8371   10.3685 C.ar    1  UNL1        0.0144
     19 C          59.9382   88.6296    9.1033 C.ar    1  UNL1        0.0492
     20 N          58.9243   88.4854    8.0073 N.am    1  UNL1       -0.2684
     21 C          59.0697   89.2779    6.7420 C.2     1  UNL1        0.3079
     22 O          58.0558   89.1337    5.6460 O.2     1  UNL1       -0.2522
     23 H          58.1634   87.8707    8.1183 H       1  UNL1        0.1564
     24 C          59.3340   94.5194   -1.5036 C.2     1  UNL1        0.2439
     25 O          60.2180   93.6476   -2.3454 O.2     1  UNL1       -0.2731
     26 N          57.9398   94.8350   -1.9580 N.am    1  UNL1       -0.2781
     27 C          57.0559   95.7068   -1.1162 C.3     1  UNL1        0.0948
     28 C          55.6616   96.0225   -1.5706 C.3     1  UNL1        0.0375
     29 C          55.1513   95.4662   -2.8668 C.3     1  UNL1        0.0609
     30 C          56.0352   94.5944   -3.7086 C.3     1  UNL1        0.0375
     31 C          57.4294   94.2788   -3.2542 C.3     1  UNL1        0.0948
     32 N          53.7571   95.7818   -3.3211 N.3     1  UNL1       -0.2738
     33 C          52.6210   95.7357   -2.3429 C.3     1  UNL1        0.0720
     34 C          51.2266   96.0513   -2.7972 C.3     1  UNL1        0.0174
     35 C          50.9685   96.4130   -4.2299 C.3     1  UNL1        0.0029
     36 C          52.1047   96.4591   -5.2082 C.3     1  UNL1        0.0174
     37 C          53.4989   96.1435   -4.7538 C.3     1  UNL1        0.0720
     38 C          60.5002   96.4244   -0.1765 C.3     1  UNL1        0.0562
     39 C          64.9765   96.7488    2.4423 C.3     1  UNL1        0.0287
     40 C          64.2345   96.6931    1.1398 C.2     1  UNL1       -0.0163
     41 C          62.7383   96.5866    1.1329 C.2     1  UNL1       -0.0096
     42 C          61.9963   96.5309   -0.1695 C.2     1  UNL1       -0.0102
     43 C          62.7506   96.5817   -1.4652 C.2     1  UNL1        0.0535
     44 CL         62.0087   96.5260   -2.7676 Cl      1  UNL1       -0.0828
     45 C          64.2468   96.6882   -1.4582 C.2     1  UNL1        0.0367
     46 C          65.2533   96.7574   -2.5683 C.2     1  UNL1        0.1205
     47 N          66.6172   96.8558   -1.9520 N.2     1  UNL1       -0.1507
     48 N          66.4537   96.8475   -0.4609 N.2     1  UNL1       -0.1677
     49 C          64.9888   96.7439   -0.1558 C.3     1  UNL1        0.1680
@<TRIPOS>BOND
     1    39    40    1
     2    40    41    2
     3    41    42    1
     4    42    38    1
     5     1    38    1
     6     1     2    1
     7     2     3   am
     8     3     4    2
     9     3     5   am
    10     5     6    1
    11     6     7    1
    12     7     8    1
    13     8    12    1
    14    12    13    1
    15    13    14    1
    16    14    15   ar
    17    15    16   ar
    18    16    17   ar
    19    17    18   ar
    20    18    19   ar
    21    19    20    1
    22    20    21   am
    23    21    22    2
    24     8     9    1
    25     9    10    1
    26     1    24    1
    27    24    25    2
    28    24    26   am
    29    26    27    1
    30    27    28    1
    31    28    29    1
    32    29    32    1
    33    32    33    1
    34    33    34    1
    35    34    35    1
    36    35    36    1
    37    36    37    1
    38    29    30    1
    39    30    31    1
    40    42    43    2
    41    43    44    1
    42    43    45    1
    43    45    46    2
    44    46    47    1
    45    47    48    2
    46    48    49    1
    47    49    40    1
    48    10     5    1
    49    31    26    1
    50    49    45    1
    51    21    12   am
    52    37    32    1
    53    19    14   ar
    54     2    11    1
    55    20    23    1
