@<TRIPOS>MOLECULE
*****
 58 63 0 0 0
SMALL
GASTEIGER

@<TRIPOS>ATOM
      1 N          61.2709   85.6446    8.0207 N.3     1  UNL1       -0.1862
      2 C          62.1893   84.5337    8.4360 C.3     1  UNL1        0.1775
      3 C          62.8992   84.6013    9.7556 C.2     1  UNL1        0.2452
      4 O          63.8176   83.4903   10.1709 O.2     1  UNL1       -0.2732
      5 N          62.6909   85.7797   10.6599 N.am    1  UNL1       -0.2541
      6 C          63.4009   85.8473   11.9795 C.3     1  UNL1        0.1577
      7 C          63.1926   87.0258   12.8838 C.2     1  UNL1        0.2445
      8 O          63.9026   87.0933   14.2034 O.2     1  UNL1       -0.2731
      9 N          62.2742   88.1368   12.4685 N.am    1  UNL1       -0.2705
     10 C          61.5642   88.0692   11.1489 C.3     1  UNL1        0.1359
     11 C          61.7726   86.8907   10.2446 C.3     1  UNL1        0.1908
     12 N          61.0626   86.8231    8.9250 N.am    1  UNL1       -0.1863
     13 C          60.1443   87.9341    8.5097 C.2     1  UNL1        0.3191
     14 O          59.9359   89.1126    9.4140 O.2     1  UNL1       -0.2512
     15 N          59.4343   87.8665    7.1901 N.am    1  UNL1       -0.2836
     16 H          59.5710   87.0931    6.5966 H       1  UNL1        0.1513
     17 C          60.5610   85.5771    6.7011 C.3     1  UNL1        0.1188
     18 C          62.3013   84.3067    5.2495 C.2     1  UNL1       -0.0034
     19 C          60.8906   84.4850    5.7271 C.2     1  UNL1       -0.0071
     20 C          64.3192   84.7364   12.3948 C.3     1  UNL1        0.0556
     21 C          63.7554   83.4796   12.9887 C.ar    1  UNL1       -0.0198
     22 C          62.5263   83.5411   13.8463 C.ar    1  UNL1       -0.0011
     23 C          61.9625   82.2844   14.4401 C.ar    1  UNL1        0.0363
     24 C          62.6277   80.9661   14.1764 C.ar    1  UNL1        0.1337
     25 O          62.0639   79.7094   14.7702 O.3     1  UNL1       -0.5055
     26 C          63.8569   80.9046   13.3187 C.ar    1  UNL1        0.0363
     27 C          64.4207   82.1613   12.7249 C.ar    1  UNL1       -0.0011
     28 H          61.2961   79.7478   15.3059 H       1  UNL1        0.2922
     29 C          62.0659   89.3152   13.3728 C.3     1  UNL1        0.1217
     30 C          63.2053   90.2454   13.6672 C.ar    1  UNL1        0.0135
     31 C          63.8257   90.2626   15.0328 C.ar    1  UNL1       -0.0012
     32 C          64.9650   91.1927   15.3273 C.ar    1  UNL1       -0.0002
     33 C          65.4841   92.1055   14.2562 C.ar    1  UNL1        0.0016
     34 C          64.8637   92.0882   12.8906 C.ar    1  UNL1        0.0214
     35 C          65.1602   92.8674   11.6436 C.ar    1  UNL1        0.0731
     36 C          64.2040   92.4188   10.5785 C.ar    1  UNL1        0.0805
     37 N          63.3167   91.3625   11.1671 N.ar    1  UNL1       -0.3241
     38 C          62.2150   90.6377   10.4523 C.3     1  UNL1        0.1305
     39 C          63.7244   91.1582   12.5961 C.ar    1  UNL1        0.0577
     40 C          66.2258   93.9118   11.4889 C.2     1  UNL1        0.2603
     41 O          67.6480   93.5900   11.8407 O.2     1  UNL1       -0.2688
     42 N          65.8691   95.2779   10.9825 N.am    1  UNL1       -0.2457
     43 H          64.9357   95.4891   10.7516 H       1  UNL1        0.1693
     44 N          66.9346   96.3223   10.8278 N.3     1  UNL1       -0.2193
     45 H          67.7694   95.9620   11.2902 H       1  UNL1        0.1456
     46 C          67.3559   96.7670    9.4586 C.3     1  UNL1        0.1974
     47 C          66.8614   96.0341    8.2468 C.2     1  UNL1        0.3349
     48 O          66.1474   96.7799    7.1587 O.2     1  UNL1       -0.2485
     49 O          67.0808   94.5554    8.1232 O.3     1  UNL1       -0.4475
     50 C          68.3595   93.9433    8.6135 C.3     1  UNL1        0.2086
     51 C          68.4513   92.4601    8.8171 C.3     1  UNL1        0.0513
     52 C          58.5160   88.9775    6.7748 C.3     1  UNL1        0.1177
     53 C          59.0184   90.0705    5.8788 C.ar    1  UNL1       -0.0025
     54 C          60.4830   90.1756    5.5727 C.ar    1  UNL1       -0.0026
     55 C          60.9855   91.2686    4.6767 C.ar    1  UNL1       -0.0003
     56 C          60.0233   92.2566    4.0868 C.ar    1  UNL1       -0.0000
     57 C          58.5585   92.1515    4.3928 C.ar    1  UNL1       -0.0003
     58 C          58.0561   91.0585    5.2888 C.ar    1  UNL1       -0.0026
@<TRIPOS>BOND
     1    18    19    2
     2    19    17    1
     3    17     1    1
     4     1     2    1
     5     2     3    1
     6     3     4    2
     7     3     5   am
     8     5     6    1
     9     6    20    1
    10    20    21    1
    11    21    22   ar
    12    22    23   ar
    13    23    24   ar
    14    24    25    1
    15    24    26   ar
    16    26    27   ar
    17     6     7    1
    18     7     8    2
    19     7     9   am
    20     9    29    1
    21    29    30    1
    22    30    31   ar
    23    31    32   ar
    24    32    33   ar
    25    33    34   ar
    26    34    35   ar
    27    35    40    1
    28    40    41    2
    29    40    42   am
    30    42    44    1
    31    44    46    1
    32    46    47    1
    33    47    48    2
    34    47    49    1
    35    49    50    1
    36    50    51    1
    37    35    36   ar
    38    36    37   ar
    39    37    38    1
    40    37    39   ar
    41     9    10    1
    42    11    10    1
    43    11    12    1
    44    12    13   am
    45    13    14    2
    46    13    15   am
    47    15    52    1
    48    52    53    1
    49    53    54   ar
    50    54    55   ar
    51    55    56   ar
    52    56    57   ar
    53    57    58   ar
    54    12     1    1
    55    58    53   ar
    56    11     5    1
    57    27    21   ar
    58    39    30   ar
    59    39    34   ar
    60    25    28    1
    61    42    43    1
    62    44    45    1
    63    15    16    1
