@<TRIPOS>MOLECULE
*****
 24 26 0 0 0
SMALL
GASTEIGER

@<TRIPOS>ATOM
      1 C          63.4406   85.7863   13.3804 C.ar    1  UNL1        0.1017
      2 C          64.2618   85.9757   14.6213 C.ar    1  UNL1        0.1179
      3 N          64.6196   84.7929   15.4717 N.ar    1  UNL1       -0.2410
      4 C          64.1562   83.4208   15.0812 C.ar    1  UNL1        0.0972
      5 C          63.3351   83.2314   13.8403 C.ar    1  UNL1        0.0304
      6 C          62.9773   84.4142   12.9899 C.ar    1  UNL1        0.0205
      7 C          63.0654   90.7240   11.5476 C.3     1  UNL1        0.0540
      8 C          62.9104   89.2386   11.6876 C.ar    1  UNL1        0.0807
      9 N          63.4844   88.3917   12.7845 N.ar    1  UNL1       -0.1694
     10 N          63.0828   86.9690   12.5300 N.ar    1  UNL1       -0.2285
     11 C          62.2606   86.9367   11.2758 C.ar    1  UNL1        0.0840
     12 C          61.5952   85.8112   10.5406 C.ar    1  UNL1        0.0192
     13 C          60.8232   86.0885    9.2848 C.ar    1  UNL1        0.0015
     14 C          60.7166   87.4912    8.7642 C.ar    1  UNL1        0.0001
     15 C          61.3820   88.6166    9.4994 C.ar    1  UNL1        0.0027
     16 C          62.1540   88.3394   10.7552 C.ar    1  UNL1        0.0329
     17 C          62.8717   81.8593   13.4498 C.3     1  UNL1        0.1960
     18 C          62.4083   80.4872   13.0593 C.3     1  UNL1        0.0428
     19 O          62.2427   81.6873   14.8006 O.3     1  UNL1       -0.3751
     20 H          62.3896   82.4868   15.3299 H       1  UNL1        0.2110
     21 C          63.5006   82.0313   12.0990 C.3     1  UNL1        0.4231
     22 F          64.1296   82.2033   10.7481 F       1  UNL1       -0.1673
     23 F          62.1396   82.0644   11.4694 F       1  UNL1       -0.1673
     24 F          64.9735   82.0408   12.3829 F       1  UNL1       -0.1673
@<TRIPOS>BOND
     1     7     8    1
     2     8     9   ar
     3     9    10   ar
     4    10     1    1
     5     1     2   ar
     6     2     3   ar
     7     3     4   ar
     8     4     5   ar
     9     5    17    1
    10    17    18    1
    11    17    19    1
    12    17    21    1
    13    21    22    1
    14    21    23    1
    15    21    24    1
    16     5     6   ar
    17    10    11   ar
    18    11    12   ar
    19    12    13   ar
    20    13    14   ar
    21    14    15   ar
    22    15    16   ar
    23    16     8   ar
    24     6     1   ar
    25    16    11   ar
    26    19    20    1
@<TRIPOS>MOLECULE
*****
 24 26 0 0 0
SMALL
GASTEIGER

@<TRIPOS>ATOM
      1 C          63.0103   85.6428   12.6995 C.ar    1  UNL1        0.1017
      2 C          63.8834   86.1835   13.7929 C.ar    1  UNL1        0.1179
      3 N          64.4404   85.2586   14.8343 N.ar    1  UNL1       -0.2410
      4 C          64.1243   83.7932   14.7823 C.ar    1  UNL1        0.0972
      5 C          63.2512   83.2527   13.6890 C.ar    1  UNL1        0.0304
      6 C          62.6942   84.1775   12.6476 C.ar    1  UNL1        0.0205
      7 C          60.4231   87.4749    8.4768 C.3     1  UNL1        0.0540
      8 C          61.2641   87.4097    9.7172 C.ar    1  UNL1        0.0807
      9 N          61.5886   86.1710   10.4984 N.ar    1  UNL1       -0.1694
     10 N          62.4533   86.5677   11.6581 N.ar    1  UNL1       -0.2285
     11 C          62.6632   88.0515   11.5937 C.ar    1  UNL1        0.0840
     12 C          63.4286   88.9960   12.4723 C.ar    1  UNL1        0.0192
     13 C          63.4591   90.4609   12.1514 C.ar    1  UNL1        0.0015
     14 C          62.7241   90.9813   10.9518 C.ar    1  UNL1        0.0001
     15 C          61.9587   90.0369   10.0732 C.ar    1  UNL1        0.0027
     16 C          61.9282   88.5719   10.3941 C.ar    1  UNL1        0.0329
     17 C          62.9351   81.7873   13.6370 C.3     1  UNL1        0.1960
     18 C          62.6190   80.3219   13.5850 C.3     1  UNL1        0.0428
     19 O          62.4664   81.8379   15.0610 O.3     1  UNL1       -0.3751
     20 H          62.5581   82.7422   15.3996 H       1  UNL1        0.2110
     21 C          63.4038   81.7367   12.2130 C.3     1  UNL1        0.4231
     22 F          63.8725   81.6861   10.7890 F       1  UNL1       -0.1673
     23 F          62.0000   81.4633   11.7607 F       1  UNL1       -0.1673
     24 F          64.8793   81.9898   12.3073 F       1  UNL1       -0.1673
@<TRIPOS>BOND
     1     7     8    1
     2     8     9   ar
     3     9    10   ar
     4    10     1    1
     5     1     2   ar
     6     2     3   ar
     7     3     4   ar
     8     4     5   ar
     9     5    17    1
    10    17    18    1
    11    17    19    1
    12    17    21    1
    13    21    22    1
    14    21    23    1
    15    21    24    1
    16     5     6   ar
    17    10    11   ar
    18    11    12   ar
    19    12    13   ar
    20    13    14   ar
    21    14    15   ar
    22    15    16   ar
    23    16     8   ar
    24     6     1   ar
    25    16    11   ar
    26    19    20    1
@<TRIPOS>MOLECULE
*****
 24 26 0 0 0
SMALL
GASTEIGER

@<TRIPOS>ATOM
      1 C          63.4172   85.7202   13.4469 C.ar    1  UNL1        0.1017
      2 C          64.2119   85.9060   14.7056 C.ar    1  UNL1        0.1179
      3 N          64.5612   84.7194   15.5541 N.ar    1  UNL1       -0.2410
      4 C          64.1160   83.3470   15.1439 C.ar    1  UNL1        0.0972
      5 C          63.3215   83.1611   13.8853 C.ar    1  UNL1        0.0304
      6 C          62.9721   84.3478   13.0368 C.ar    1  UNL1        0.0205
      7 C          61.4213   88.7216    9.5884 C.3     1  UNL1        0.0540
      8 C          62.1505   88.2863   10.8249 C.ar    1  UNL1        0.0807
      9 N          62.2479   86.8819   11.3426 N.ar    1  UNL1       -0.1694
     10 N          63.0679   86.9068   12.5984 N.ar    1  UNL1       -0.2285
     11 C          63.4772   88.3265   12.8568 C.ar    1  UNL1        0.0840
     12 C          64.2929   88.9531   13.9485 C.ar    1  UNL1        0.0192
     13 C          64.5417   90.4323   13.9442 C.ar    1  UNL1        0.0015
     14 C          63.9746   91.2849   12.8481 C.ar    1  UNL1        0.0001
     15 C          63.1589   90.6584   11.7563 C.ar    1  UNL1        0.0027
     16 C          62.9102   89.1792   11.7607 C.ar    1  UNL1        0.0329
     17 C          62.8763   81.7887   13.4752 C.3     1  UNL1        0.1960
     18 C          62.4311   80.4163   13.0651 C.3     1  UNL1        0.0428
     19 O          62.2189   81.6029   14.8106 O.3     1  UNL1       -0.3751
     20 H          62.3486   82.3996   15.3485 H       1  UNL1        0.2110
     21 C          63.5337   81.9745   12.1398 C.3     1  UNL1        0.4231
     22 F          64.1910   82.1603   10.8044 F       1  UNL1       -0.1673
     23 F          62.1872   81.9884   11.4789 F       1  UNL1       -0.1673
     24 F          64.9992   82.0060   12.4580 F       1  UNL1       -0.1673
@<TRIPOS>BOND
     1     7     8    1
     2     8     9   ar
     3     9    10   ar
     4    10     1    1
     5     1     2   ar
     6     2     3   ar
     7     3     4   ar
     8     4     5   ar
     9     5    17    1
    10    17    18    1
    11    17    19    1
    12    17    21    1
    13    21    22    1
    14    21    23    1
    15    21    24    1
    16     5     6   ar
    17    10    11   ar
    18    11    12   ar
    19    12    13   ar
    20    13    14   ar
    21    14    15   ar
    22    15    16   ar
    23    16     8   ar
    24     6     1   ar
    25    16    11   ar
    26    19    20    1
@<TRIPOS>MOLECULE
*****
 24 26 0 0 0
SMALL
GASTEIGER

@<TRIPOS>ATOM
      1 C          64.2948   90.2087   14.5560 C.ar    1  UNL1        0.1017
      2 C          63.4136   90.7338   15.6506 C.ar    1  UNL1        0.1179
      3 N          63.9142   91.8136   16.5634 N.ar    1  UNL1       -0.2410
      4 C          65.2960   92.3684   16.3818 C.ar    1  UNL1        0.0972
      5 C          66.1771   91.8434   15.2873 C.ar    1  UNL1        0.0304
      6 C          65.6764   90.7635   14.3744 C.ar    1  UNL1        0.0205
      7 C          63.1212   85.4622   12.5625 C.3     1  UNL1        0.0540
      8 C          63.2547   86.9472   12.7268 C.ar    1  UNL1        0.0807
      9 N          63.8736   87.6527   13.8970 N.ar    1  UNL1       -0.1694
     10 N          63.7941   89.1289   13.6431 N.ar    1  UNL1       -0.2285
     11 C          63.1262   89.3358   12.3160 C.ar    1  UNL1        0.0840
     12 C          62.7785   90.5777   11.5502 C.ar    1  UNL1        0.0192
     13 C          62.0974   90.4713   10.2180 C.ar    1  UNL1        0.0015
     14 C          61.7640   89.1229    9.6517 C.ar    1  UNL1        0.0001
     15 C          62.1117   87.8809   10.4176 C.ar    1  UNL1        0.0027
     16 C          62.7928   87.9874   11.7497 C.ar    1  UNL1        0.0329
     17 C          67.5588   92.3982   15.1056 C.3     1  UNL1        0.1960
     18 C          68.9405   92.9529   14.9240 C.3     1  UNL1        0.0428
     19 O          67.8502   92.1472   16.5555 O.3     1  UNL1       -0.3751
     20 H          67.0706   91.7548   16.9788 H       1  UNL1        0.2110
     21 C          67.2674   92.6491   13.6558 C.3     1  UNL1        0.4231
     22 F          66.9761   92.9001   12.2059 F       1  UNL1       -0.1673
     23 F          68.2544   91.5863   13.2734 F       1  UNL1       -0.1673
     24 F          66.2393   93.7411   13.6759 F       1  UNL1       -0.1673
@<TRIPOS>BOND
     1     7     8    1
     2     8     9   ar
     3     9    10   ar
     4    10     1    1
     5     1     2   ar
     6     2     3   ar
     7     3     4   ar
     8     4     5   ar
     9     5    17    1
    10    17    18    1
    11    17    19    1
    12    17    21    1
    13    21    22    1
    14    21    23    1
    15    21    24    1
    16     5     6   ar
    17    10    11   ar
    18    11    12   ar
    19    12    13   ar
    20    13    14   ar
    21    14    15   ar
    22    15    16   ar
    23    16     8   ar
    24     6     1   ar
    25    16    11   ar
    26    19    20    1
@<TRIPOS>MOLECULE
*****
 24 26 0 0 0
SMALL
GASTEIGER

@<TRIPOS>ATOM
      1 C          62.7555   84.9686   10.5053 C.ar    1  UNL1        0.1017
      2 C          63.5072   84.0859    9.5534 C.ar    1  UNL1        0.1179
      3 N          64.4028   83.0046   10.0814 N.ar    1  UNL1       -0.2410
      4 C          64.5468   82.8060   11.5612 C.ar    1  UNL1        0.0972
      5 C          63.7952   83.6886   12.5130 C.ar    1  UNL1        0.0304
      6 C          62.8996   84.7699   11.9850 C.ar    1  UNL1        0.0205
      7 C          59.0697   87.5195    7.7147 C.3     1  UNL1        0.0540
      8 C          60.1657   87.2224    8.6947 C.ar    1  UNL1        0.0807
      9 N          60.8222   85.8903    8.9061 N.ar    1  UNL1       -0.1694
     10 N          61.8599   86.0498    9.9774 N.ar    1  UNL1       -0.2285
     11 C          61.8448   87.4805   10.4280 C.ar    1  UNL1        0.0840
     12 C          62.6493   88.2169   11.4578 C.ar    1  UNL1        0.0192
     13 C          62.4066   89.6780   11.6948 C.ar    1  UNL1        0.0015
     14 C          61.3596   90.4027   10.9020 C.ar    1  UNL1        0.0001
     15 C          60.5551   89.6663    9.8722 C.ar    1  UNL1        0.0027
     16 C          60.7978   88.2052    9.6352 C.ar    1  UNL1        0.0329
     17 C          63.9392   83.4900   13.9928 C.3     1  UNL1        0.1960
     18 C          64.0831   83.2914   15.4726 C.3     1  UNL1        0.0428
     19 O          65.2353   84.2446   13.9680 O.3     1  UNL1       -0.3751
     20 H          65.4269   84.5284   13.0604 H       1  UNL1        0.2110
     21 C          62.6430   82.7354   14.0176 C.3     1  UNL1        0.4231
     22 F          61.3469   81.9808   14.0424 F       1  UNL1       -0.1673
     23 F          61.9968   83.8697   14.7564 F       1  UNL1       -0.1673
     24 F          62.9564   81.4522   13.3068 F       1  UNL1       -0.1673
@<TRIPOS>BOND
     1     7     8    1
     2     8     9   ar
     3     9    10   ar
     4    10     1    1
     5     1     2   ar
     6     2     3   ar
     7     3     4   ar
     8     4     5   ar
     9     5    17    1
    10    17    18    1
    11    17    19    1
    12    17    21    1
    13    21    22    1
    14    21    23    1
    15    21    24    1
    16     5     6   ar
    17    10    11   ar
    18    11    12   ar
    19    12    13   ar
    20    13    14   ar
    21    14    15   ar
    22    15    16   ar
    23    16     8   ar
    24     6     1   ar
    25    16    11   ar
    26    19    20    1
@<TRIPOS>MOLECULE
*****
 24 26 0 0 0
SMALL
GASTEIGER

@<TRIPOS>ATOM
      1 C          62.0808   89.7623   11.1429 C.ar    1  UNL1        0.1017
      2 C          60.8601   89.8566   12.0096 C.ar    1  UNL1        0.1179
      3 N          59.7078   88.9225   11.7864 N.ar    1  UNL1       -0.2410
      4 C          59.7763   87.8941   10.6966 C.ar    1  UNL1        0.0972
      5 C          60.9969   87.7999    9.8300 C.ar    1  UNL1        0.0304
      6 C          62.1491   88.7340   10.0532 C.ar    1  UNL1        0.0205
      7 C          65.8700   93.3477   10.3256 C.3     1  UNL1        0.0540
      8 C          64.9747   92.3444   10.9904 C.ar    1  UNL1        0.0807
      9 N          63.8595   91.5862   10.3337 N.ar    1  UNL1       -0.1694
     10 N          63.2330   90.6965   11.3661 N.ar    1  UNL1       -0.2285
     11 C          63.9611   90.9048   12.6609 C.ar    1  UNL1        0.0840
     12 C          63.7829   90.2987   14.0214 C.ar    1  UNL1        0.0192
     13 C          64.6811   90.7111   15.1496 C.ar    1  UNL1        0.0015
     14 C          65.7576   91.7296   14.9174 C.ar    1  UNL1        0.0001
     15 C          65.9358   92.3357   13.5570 C.ar    1  UNL1        0.0027
     16 C          65.0375   91.9233   12.4287 C.ar    1  UNL1        0.0329
     17 C          61.0653   86.7715    8.7401 C.3     1  UNL1        0.1960
     18 C          61.1338   85.7431    7.6503 C.3     1  UNL1        0.0428
     19 O          60.0850   87.5658    7.9291 O.3     1  UNL1       -0.3751
     20 H          59.8319   88.3640    8.4187 H       1  UNL1        0.2110
     21 C          62.0457   85.9772    9.5512 C.3     1  UNL1        0.4231
     22 F          63.0261   85.1829   10.3623 F       1  UNL1       -0.1673
     23 F          63.0905   86.1893    8.4961 F       1  UNL1       -0.1673
     24 F          61.2692   85.5792   10.7713 F       1  UNL1       -0.1673
@<TRIPOS>BOND
     1     7     8    1
     2     8     9   ar
     3     9    10   ar
     4    10     1    1
     5     1     2   ar
     6     2     3   ar
     7     3     4   ar
     8     4     5   ar
     9     5    17    1
    10    17    18    1
    11    17    19    1
    12    17    21    1
    13    21    22    1
    14    21    23    1
    15    21    24    1
    16     5     6   ar
    17    10    11   ar
    18    11    12   ar
    19    12    13   ar
    20    13    14   ar
    21    14    15   ar
    22    15    16   ar
    23    16     8   ar
    24     6     1   ar
    25    16    11   ar
    26    19    20    1
@<TRIPOS>MOLECULE
*****
 24 26 0 0 0
SMALL
GASTEIGER

@<TRIPOS>ATOM
      1 C          63.3373   85.5765   12.9425 C.ar    1  UNL1        0.1017
      2 C          63.9832   85.5971   14.2962 C.ar    1  UNL1        0.1179
      3 N          64.3485   84.3091   14.9727 N.ar    1  UNL1       -0.2410
      4 C          64.0678   83.0004   14.2955 C.ar    1  UNL1        0.0972
      5 C          63.4219   82.9798   12.9418 C.ar    1  UNL1        0.0304
      6 C          63.0567   84.2678   12.2654 C.ar    1  UNL1        0.0205
      7 C          63.0203   90.7120   11.7566 C.3     1  UNL1        0.0540
      8 C          62.8264   89.2250   11.7210 C.ar    1  UNL1        0.0807
      9 N          63.4310   88.2340   12.6708 N.ar    1  UNL1       -0.1694
     10 N          62.9721   86.8645   12.2660 N.ar    1  UNL1       -0.2285
     11 C          62.0837   87.0091   11.0661 C.ar    1  UNL1        0.0840
     12 C          61.3452   86.0009   10.2366 C.ar    1  UNL1        0.0192
     13 C          60.5167   86.4516    9.0703 C.ar    1  UNL1        0.0015
     14 C          60.4266   87.9105    8.7334 C.ar    1  UNL1        0.0001
     15 C          61.1651   88.9187    9.5629 C.ar    1  UNL1        0.0027
     16 C          61.9937   88.4680   10.7292 C.ar    1  UNL1        0.0329
     17 C          63.1412   81.6711   12.2646 C.3     1  UNL1        0.1960
     18 C          62.8606   80.3625   11.5874 C.3     1  UNL1        0.0428
     19 O          63.9309   82.1195   11.0708 O.3     1  UNL1       -0.3751
     20 H          64.2723   83.0141   11.2263 H       1  UNL1        0.2110
     21 C          62.3515   81.2227   13.4585 C.3     1  UNL1        0.4231
     22 F          61.5619   80.7743   14.6523 F       1  UNL1       -0.1673
     23 F          63.2622   80.0414   13.6171 F       1  UNL1       -0.1673
     24 F          61.2769   82.2604   13.5934 F       1  UNL1       -0.1673
@<TRIPOS>BOND
     1     7     8    1
     2     8     9   ar
     3     9    10   ar
     4    10     1    1
     5     1     2   ar
     6     2     3   ar
     7     3     4   ar
     8     4     5   ar
     9     5    17    1
    10    17    18    1
    11    17    19    1
    12    17    21    1
    13    21    22    1
    14    21    23    1
    15    21    24    1
    16     5     6   ar
    17    10    11   ar
    18    11    12   ar
    19    12    13   ar
    20    13    14   ar
    21    14    15   ar
    22    15    16   ar
    23    16     8   ar
    24     6     1   ar
    25    16    11   ar
    26    19    20    1
@<TRIPOS>MOLECULE
*****
 24 26 0 0 0
SMALL
GASTEIGER

@<TRIPOS>ATOM
      1 C          63.9046   85.7621   13.9489 C.ar    1  UNL1        0.1017
      2 C          63.9338   85.1857   15.3335 C.ar    1  UNL1        0.1179
      3 N          63.9294   83.6982   15.5270 N.ar    1  UNL1       -0.2410
      4 C          63.8958   82.7871   14.3359 C.ar    1  UNL1        0.0972
      5 C          63.8666   83.3634   12.9514 C.ar    1  UNL1        0.0304
      6 C          63.8710   84.8509   12.7579 C.ar    1  UNL1        0.0205
      7 C          64.7183   90.9230   14.7121 C.3     1  UNL1        0.0540
      8 C          64.2830   89.6217   14.1062 C.ar    1  UNL1        0.0807
      9 N          64.5058   88.2586   14.6911 N.ar    1  UNL1       -0.1694
     10 N          63.9090   87.2495   13.7554 N.ar    1  UNL1       -0.2285
     11 C          63.3172   87.9890   12.5922 C.ar    1  UNL1        0.0840
     12 C          62.5977   87.5168   11.3637 C.ar    1  UNL1        0.0192
     13 C          62.1095   88.5108   10.3520 C.ar    1  UNL1        0.0015
     14 C          62.3406   89.9769   10.5688 C.ar    1  UNL1        0.0001
     15 C          63.0601   90.4491   11.7973 C.ar    1  UNL1        0.0027
     16 C          63.5484   89.4552   12.8091 C.ar    1  UNL1        0.0329
     17 C          63.8329   82.4523   11.7603 C.3     1  UNL1        0.1960
     18 C          63.7993   81.5411   10.5692 C.3     1  UNL1        0.0428
     19 O          65.0216   83.1624   11.1835 O.3     1  UNL1       -0.3751
     20 H          65.2983   83.8710   11.7853 H       1  UNL1        0.2110
     21 C          62.6443   81.7421   12.3371 C.3     1  UNL1        0.4231
     22 F          61.4556   81.0319   12.9139 F       1  UNL1       -0.1673
     23 F          61.7701   82.9028   11.9648 F       1  UNL1       -0.1673
     24 F          63.2048   80.4441   12.8380 F       1  UNL1       -0.1673
@<TRIPOS>BOND
     1     7     8    1
     2     8     9   ar
     3     9    10   ar
     4    10     1    1
     5     1     2   ar
     6     2     3   ar
     7     3     4   ar
     8     4     5   ar
     9     5    17    1
    10    17    18    1
    11    17    19    1
    12    17    21    1
    13    21    22    1
    14    21    23    1
    15    21    24    1
    16     5     6   ar
    17    10    11   ar
    18    11    12   ar
    19    12    13   ar
    20    13    14   ar
    21    14    15   ar
    22    15    16   ar
    23    16     8   ar
    24     6     1   ar
    25    16    11   ar
    26    19    20    1
@<TRIPOS>MOLECULE
*****
 24 26 0 0 0
SMALL
GASTEIGER

@<TRIPOS>ATOM
      1 C          63.4873   90.1920   11.5498 C.ar    1  UNL1        0.1017
      2 C          63.6088   89.0808   12.5502 C.ar    1  UNL1        0.1179
      3 N          62.7557   87.8543   12.4160 N.ar    1  UNL1       -0.2410
      4 C          61.7812   87.7389   11.2815 C.ar    1  UNL1        0.0972
      5 C          61.6598   88.8500   10.2812 C.ar    1  UNL1        0.0304
      6 C          62.5129   90.0765   10.4154 C.ar    1  UNL1        0.0205
      7 C          66.0325   94.6843   10.4446 C.3     1  UNL1        0.0540
      8 C          65.5102   93.4833   11.1760 C.ar    1  UNL1        0.0807
      9 N          64.6106   92.4266   10.6067 N.ar    1  UNL1       -0.1694
     10 N          64.3404   91.4185   11.6840 N.ar    1  UNL1       -0.2285
     11 C          65.0729   91.8521   12.9191 C.ar    1  UNL1        0.0840
     12 C          65.1750   91.2498   14.2890 C.ar    1  UNL1        0.0192
     13 C          66.0000   91.9236   15.3450 C.ar    1  UNL1        0.0015
     14 C          66.7231   93.1998   15.0310 C.ar    1  UNL1        0.0001
     15 C          66.6210   93.8022   13.6611 C.ar    1  UNL1        0.0027
     16 C          65.7959   93.1283   12.6051 C.ar    1  UNL1        0.0329
     17 C          60.6853   88.7347    9.1468 C.3     1  UNL1        0.1960
     18 C          59.7108   88.6193    8.0123 C.3     1  UNL1        0.0428
     19 O          60.3600   90.1931    9.2779 O.3     1  UNL1       -0.3751
     20 H          60.8841   90.5778    9.9978 H       1  UNL1        0.2110
     21 C          61.0106   87.2762    9.0157 C.3     1  UNL1        0.4231
     22 F          61.3359   85.8178    8.8846 F       1  UNL1       -0.1673
     23 F          59.5592   86.9373    9.1847 F       1  UNL1       -0.1673
     24 F          62.4976   87.2522    8.8200 F       1  UNL1       -0.1673
@<TRIPOS>BOND
     1     7     8    1
     2     8     9   ar
     3     9    10   ar
     4    10     1    1
     5     1     2   ar
     6     2     3   ar
     7     3     4   ar
     8     4     5   ar
     9     5    17    1
    10    17    18    1
    11    17    19    1
    12    17    21    1
    13    21    22    1
    14    21    23    1
    15    21    24    1
    16     5     6   ar
    17    10    11   ar
    18    11    12   ar
    19    12    13   ar
    20    13    14   ar
    21    14    15   ar
    22    15    16   ar
    23    16     8   ar
    24     6     1   ar
    25    16    11   ar
    26    19    20    1
