@<TRIPOS>MOLECULE
*****
 43 45 0 0 0
SMALL
GASTEIGER

@<TRIPOS>ATOM
      1 C          63.4363   89.1496   12.7608 C.ar    1  UNL1        0.0550
      2 S          64.5855   90.0693   13.0494 S.2     1  UNL1       -0.0512
      3 C          64.2281   91.4329   12.5366 C.ar    1  UNL1        0.1657
      4 N          62.8580   91.3559   11.9309 N.ar    1  UNL1       -0.2193
      5 C          62.3686   89.9447   12.0695 C.ar    1  UNL1        0.1426
      6 C          61.0441   89.4207   11.5993 C.2     1  UNL1        0.2673
      7 O          59.7769   89.8973   12.2452 O.2     1  UNL1       -0.2682
      8 N          60.9867   88.4202   10.4833 N.am    1  UNL1       -0.2747
      9 C          59.6621   87.8962   10.0132 C.3     1  UNL1        0.0966
     10 C          59.6048   86.8956    8.8971 C.3     1  UNL1        0.0568
     11 C          60.8719   86.4190    8.2512 C.3     1  UNL1        0.1644
     12 F          60.8145   85.4184    7.1352 F       1  UNL1       -0.2372
     13 C          62.1965   86.9429    8.7213 C.3     1  UNL1        0.0568
     14 C          62.2538   87.9435    9.8374 C.3     1  UNL1        0.0966
     15 C          63.2282   84.7734   13.7881 C.ar    1  UNL1        0.1333
     16 C          62.8289   85.2425   12.4205 C.ar    1  UNL1        0.0208
     17 C          62.8983   86.7012   12.0780 C.ar    1  UNL1        0.0028
     18 C          63.3669   87.6908   13.1032 C.ar    1  UNL1        0.0192
     19 C          63.7661   87.2217   14.4709 C.ar    1  UNL1        0.0700
     20 CL         64.2347   88.2113   15.4961 Cl      1  UNL1       -0.0813
     21 C          63.6967   85.7630   14.8133 C.ar    1  UNL1        0.0867
     22 CL         64.0960   85.2939   16.1811 Cl      1  UNL1       -0.0800
     23 S          63.1588   83.3146   14.1306 S.O2    1  UNL1        0.0613
     24 O          61.8911   83.5546   14.8958 O.2     1  UNL1       -0.1530
     25 O          64.4264   83.0747   13.3654 O.2     1  UNL1       -0.1530
     26 N          63.0894   81.8559   14.4731 N.3     1  UNL1       -0.1723
     27 H          64.0185   81.4696   14.3057 H       1  UNL1        0.1491
     28 C          60.7171   80.8134   14.2845 C.3     1  UNL1        0.0278
     29 C          62.1152   80.9641   13.7621 C.3     1  UNL1        0.1701
     30 C          62.5389   80.2229   12.5287 C.3     1  UNL1        0.4118
     31 F          62.9626   79.4818   11.2954 F       1  UNL1       -0.1685
     32 F          62.3979   81.4811   11.7242 F       1  UNL1       -0.1685
     33 F          62.6799   78.9648   13.3332 F       1  UNL1       -0.1685
     34 N          65.0896   92.6583   12.6155 N.am    1  UNL1       -0.2641
     35 C          65.5829   93.3105   11.3581 C.2     1  UNL1        0.2299
     36 O          65.2146   92.7374   10.0217 O.2     1  UNL1       -0.2746
     37 H          65.3313   93.0344   13.4926 H       1  UNL1        0.1567
     38 C          66.4444   94.5359   11.4370 C.3     1  UNL1        0.1122
     39 C          66.5709   95.4416   10.2479 C.3     1  UNL1        0.0971
     40 C          67.6078   94.5290    9.6631 C.3     1  UNL1        0.0298
     41 C          65.5339   96.3542   10.8327 C.3     1  UNL1        0.0298
     42 O          66.6973   96.3473    9.0589 O.3     1  UNL1       -0.3862
     43 H          67.3568   95.9861    8.4460 H       1  UNL1        0.2102
@<TRIPOS>BOND
     1    29    28    1
     2    29    26    1
     3    26    23    1
     4    23    24    2
     5    23    25    2
     6    23    15    1
     7    15    16   ar
     8    16    17   ar
     9    17    18   ar
    10    18     1    1
    11     1     2   ar
    12     2     3   ar
    13     3    34    1
    14    34    35   am
    15    35    36    2
    16    35    38    1
    17    38    39    1
    18    39    40    1
    19    39    41    1
    20    39    42    1
    21     3     4   ar
    22     4     5   ar
    23     5     6    1
    24     6     7    2
    25     6     8   am
    26     8     9    1
    27     9    10    1
    28    10    11    1
    29    11    12    1
    30    11    13    1
    31    13    14    1
    32    18    19   ar
    33    19    20    1
    34    19    21   ar
    35    21    22    1
    36    29    30    1
    37    30    31    1
    38    30    32    1
    39    30    33    1
    40    21    15   ar
    41     5     1   ar
    42    14     8    1
    43    26    27    1
    44    34    37    1
    45    42    43    1
@<TRIPOS>MOLECULE
*****
 43 45 0 0 0
SMALL
GASTEIGER

@<TRIPOS>ATOM
      1 C          61.3514   88.9340   10.5005 C.ar    1  UNL1        0.0550
      2 S          60.6804   89.6593    9.3720 S.2     1  UNL1       -0.0512
      3 C          59.8541   88.6667    8.6091 C.ar    1  UNL1        0.1657
      4 N          60.0144   87.3278    9.2662 N.ar    1  UNL1       -0.2193
      5 C          60.9398   87.4931   10.4352 C.ar    1  UNL1        0.1426
      6 C          61.3768   86.4078   11.3739 C.2     1  UNL1        0.2673
      7 O          60.9068   86.4141   12.7985 O.2     1  UNL1       -0.2682
      8 N          62.2837   85.3163   10.8883 N.am    1  UNL1       -0.2747
      9 C          62.7207   84.2310   11.8271 C.3     1  UNL1        0.0966
     10 C          63.6277   83.1395   11.3414 C.3     1  UNL1        0.0568
     11 C          64.0976   83.1331    9.9169 C.3     1  UNL1        0.1644
     12 F          65.0046   82.0415    9.4312 F       1  UNL1       -0.2372
     13 C          63.6607   84.2183    8.9781 C.3     1  UNL1        0.0568
     14 C          62.7537   85.3099    9.4638 C.3     1  UNL1        0.0966
     15 C          64.1140   90.7601   13.5473 C.ar    1  UNL1        0.1333
     16 C          63.2638   89.5810   13.9172 C.ar    1  UNL1        0.0208
     17 C          62.3430   88.9723   12.9016 C.ar    1  UNL1        0.0028
     18 C          62.2722   89.5427   11.5161 C.ar    1  UNL1        0.0192
     19 C          63.1224   90.7218   11.1463 C.ar    1  UNL1        0.0700
     20 CL         63.0517   91.2923    9.7607 Cl      1  UNL1       -0.0813
     21 C          64.0433   91.3306   12.1619 C.ar    1  UNL1        0.0867
     22 CL         64.8934   92.5098   11.7919 Cl      1  UNL1       -0.0800
     23 S          65.0349   91.3689   14.5629 S.O2    1  UNL1        0.0613
     24 O          66.2189   90.9032   13.7685 O.2     1  UNL1       -0.1530
     25 O          63.8508   91.8345   15.3574 O.2     1  UNL1       -0.1530
     26 N          65.9558   91.9776   15.5785 N.3     1  UNL1       -0.1723
     27 H          65.3657   92.4127   16.2877 H       1  UNL1        0.1491
     28 C          66.6133   93.9983   14.0838 C.3     1  UNL1        0.0278
     29 C          66.9594   93.0097   15.1576 C.3     1  UNL1        0.1701
     30 C          68.3092   93.0534   15.8104 C.3     1  UNL1        0.4118
     31 F          69.6590   93.0971   16.4631 F       1  UNL1       -0.1685
     32 F          68.3193   91.5555   15.8897 F       1  UNL1       -0.1685
     33 F          68.2991   94.5513   15.7310 F       1  UNL1       -0.1685
     34 N          59.0149   88.9612    7.4013 N.am    1  UNL1       -0.2641
     35 C          59.5277   89.8886    6.3397 C.2     1  UNL1        0.2299
     36 O          60.8798   90.5215    6.4861 O.2     1  UNL1       -0.2746
     37 H          58.1275   88.5458    7.3052 H       1  UNL1        0.1567
     38 C          58.6885   90.1832    5.1319 C.3     1  UNL1        0.1122
     39 C          57.8565   91.4304    5.0827 C.3     1  UNL1        0.0971
     40 C          56.6388   90.6323    5.4437 C.3     1  UNL1        0.0298
     41 C          59.0743   92.2284    4.7217 C.3     1  UNL1        0.0298
     42 O          57.0246   92.6776    5.0336 O.3     1  UNL1       -0.3862
     43 H          56.1028   92.4599    5.2431 H       1  UNL1        0.2102
@<TRIPOS>BOND
     1    29    28    1
     2    29    26    1
     3    26    23    1
     4    23    24    2
     5    23    25    2
     6    23    15    1
     7    15    16   ar
     8    16    17   ar
     9    17    18   ar
    10    18     1    1
    11     1     2   ar
    12     2     3   ar
    13     3    34    1
    14    34    35   am
    15    35    36    2
    16    35    38    1
    17    38    39    1
    18    39    40    1
    19    39    41    1
    20    39    42    1
    21     3     4   ar
    22     4     5   ar
    23     5     6    1
    24     6     7    2
    25     6     8   am
    26     8     9    1
    27     9    10    1
    28    10    11    1
    29    11    12    1
    30    11    13    1
    31    13    14    1
    32    18    19   ar
    33    19    20    1
    34    19    21   ar
    35    21    22    1
    36    29    30    1
    37    30    31    1
    38    30    32    1
    39    30    33    1
    40    21    15   ar
    41     5     1   ar
    42    14     8    1
    43    26    27    1
    44    34    37    1
    45    42    43    1
@<TRIPOS>MOLECULE
*****
 43 45 0 0 0
SMALL
GASTEIGER

@<TRIPOS>ATOM
      1 C          61.4488   87.9403   10.2404 C.ar    1  UNL1        0.0550
      2 S          60.5207   88.1293    9.0772 S.2     1  UNL1       -0.0512
      3 C          60.2522   89.5979    8.9322 C.ar    1  UNL1        0.1657
      4 N          61.0142   90.3166   10.0058 N.ar    1  UNL1       -0.2193
      5 C          61.7537   89.2921   10.8143 C.ar    1  UNL1        0.1426
      6 C          62.6423   89.5707   11.9903 C.2     1  UNL1        0.2673
      7 O          62.5098   88.7528   13.2408 O.2     1  UNL1       -0.2682
      8 N          63.6632   90.6670   11.9159 N.am    1  UNL1       -0.2747
      9 C          64.5517   90.9456   13.0919 C.3     1  UNL1        0.0966
     10 C          65.5727   92.0419   13.0175 C.3     1  UNL1        0.0568
     11 C          65.7053   92.8598   11.7671 C.3     1  UNL1        0.1644
     12 F          66.7263   93.9561   11.6926 F       1  UNL1       -0.2372
     13 C          64.8168   92.5813   10.5910 C.3     1  UNL1        0.0568
     14 C          63.7958   91.4849   10.6655 C.3     1  UNL1        0.0966
     15 C          63.0387   84.0082   11.7441 C.ar    1  UNL1        0.1333
     16 C          62.2952   84.9213   12.6733 C.ar    1  UNL1        0.0208
     17 C          61.7653   86.2320   12.1721 C.ar    1  UNL1        0.0028
     18 C          61.9787   86.6296   10.7416 C.ar    1  UNL1        0.0192
     19 C          62.7222   85.7165    9.8124 C.ar    1  UNL1        0.0700
     20 CL         62.9357   86.1141    8.3818 Cl      1  UNL1       -0.0813
     21 C          63.2521   84.4058   10.3136 C.ar    1  UNL1        0.0867
     22 CL         63.9956   83.4927    9.3843 Cl      1  UNL1       -0.0800
     23 S          63.5686   82.6976   12.2453 S.O2    1  UNL1        0.0613
     24 O          64.5791   83.4258   13.0812 O.2     1  UNL1       -0.1530
     25 O          62.5582   81.9693   11.4095 O.2     1  UNL1       -0.1530
     26 N          64.0986   81.3869   12.7466 N.3     1  UNL1       -0.1723
     27 H          64.0208   80.7236   11.9756 H       1  UNL1        0.1491
     28 C          64.3409   80.2234   15.0569 C.3     1  UNL1        0.0278
     29 C          63.4743   80.7341   13.9441 C.3     1  UNL1        0.1701
     30 C          61.9835   80.5919   14.0288 C.3     1  UNL1        0.4118
     31 F          60.4926   80.4497   14.1136 F       1  UNL1       -0.1685
     32 F          61.9103   81.8471   14.8468 F       1  UNL1       -0.1685
     33 F          62.0567   79.3367   13.2108 F       1  UNL1       -0.1685
     34 N          59.3755   90.2358    7.8956 N.am    1  UNL1       -0.2641
     35 C          59.0600   89.5022    6.6258 C.2     1  UNL1        0.2299
     36 O          59.6212   88.1308    6.3926 O.2     1  UNL1       -0.2746
     37 H          59.0072   91.1358    8.0487 H       1  UNL1        0.1567
     38 C          58.1833   90.1401    5.5892 C.3     1  UNL1        0.1122
     39 C          58.5349   91.4900    5.0373 C.3     1  UNL1        0.0971
     40 C          57.0781   91.8408    4.9676 C.3     1  UNL1        0.0298
     41 C          59.9917   91.1390    5.1070 C.3     1  UNL1        0.0298
     42 O          58.8864   92.8397    4.4854 O.3     1  UNL1       -0.3862
     43 H          58.0741   93.3446    4.3240 H       1  UNL1        0.2102
@<TRIPOS>BOND
     1    29    28    1
     2    29    26    1
     3    26    23    1
     4    23    24    2
     5    23    25    2
     6    23    15    1
     7    15    16   ar
     8    16    17   ar
     9    17    18   ar
    10    18     1    1
    11     1     2   ar
    12     2     3   ar
    13     3    34    1
    14    34    35   am
    15    35    36    2
    16    35    38    1
    17    38    39    1
    18    39    40    1
    19    39    41    1
    20    39    42    1
    21     3     4   ar
    22     4     5   ar
    23     5     6    1
    24     6     7    2
    25     6     8   am
    26     8     9    1
    27     9    10    1
    28    10    11    1
    29    11    12    1
    30    11    13    1
    31    13    14    1
    32    18    19   ar
    33    19    20    1
    34    19    21   ar
    35    21    22    1
    36    29    30    1
    37    30    31    1
    38    30    32    1
    39    30    33    1
    40    21    15   ar
    41     5     1   ar
    42    14     8    1
    43    26    27    1
    44    34    37    1
    45    42    43    1
