@<TRIPOS>MOLECULE
*****
 21 24 0 0 0
SMALL
GASTEIGER

@<TRIPOS>ATOM
      1 O          63.2106   91.3243    9.7734 O.2     1  UNL1       -0.2698
      2 C          64.0035   91.6399   11.0070 C.2     1  UNL1        0.2495
      3 N          65.0212   92.7331   11.1452 N.am    1  UNL1       -0.2804
      4 C          65.5646   92.6866   12.5426 C.ar    1  UNL1        0.0506
      5 C          66.5922   93.5209   13.2482 C.ar    1  UNL1        0.0147
      6 C          66.9379   93.2332   14.6791 C.ar    1  UNL1        0.0013
      7 C          66.2560   92.1112   15.4045 C.ar    1  UNL1        0.0001
      8 C          65.2284   91.2769   14.6989 C.ar    1  UNL1        0.0014
      9 C          64.8827   91.5646   13.2679 C.ar    1  UNL1        0.0179
     10 C          63.9179   90.9177   12.3189 C.2     1  UNL1        0.0546
     11 C          63.0243   89.7531   12.6276 C.2     1  UNL1        0.0007
     12 H          65.2861   93.3694   10.4423 H       1  UNL1        0.1552
     13 C          62.1069   89.2111   11.5717 C.2     1  UNL1       -0.0160
     14 C          60.8044   89.8978   11.2854 C.2     1  UNL1       -0.0038
     15 C          59.8870   89.3559   10.2296 C.2     1  UNL1        0.0025
     16 C          60.2721   88.1272    9.4602 C.2     1  UNL1        0.0366
     17 C          59.5774   87.3672    8.3695 C.2     1  UNL1        0.1233
     18 N          60.4505   86.2108    7.9817 N.2     1  UNL1       -0.1467
     19 N          61.6849   86.2561    8.8327 N.2     1  UNL1       -0.1520
     20 C          61.5746   87.4406    9.7465 C.2     1  UNL1        0.0864
     21 C          62.4920   87.9825   10.8023 C.3     1  UNL1        0.0739
@<TRIPOS>BOND
     1     1     2    2
     2     2     3   am
     3     3     4    1
     4     4     5   ar
     5     5     6   ar
     6     6     7   ar
     7     7     8   ar
     8     8     9   ar
     9     9    10    1
    10    10    11    2
    11    11    13    1
    12    13    14    2
    13    14    15    1
    14    15    16    2
    15    16    17    1
    16    17    18    2
    17    18    19    1
    18    19    20    2
    19    20    21    1
    20    10     2    1
    21    21    13    1
    22     9     4   ar
    23    20    16    1
    24     3    12    1
@<TRIPOS>MOLECULE
*****
 21 24 0 0 0
SMALL
GASTEIGER

@<TRIPOS>ATOM
      1 O          63.9166   88.1378   13.1375 O.2     1  UNL1       -0.2698
      2 C          62.9372   88.0592   12.0041 C.2     1  UNL1        0.2495
      3 N          62.3137   86.8070   11.4628 N.am    1  UNL1       -0.2804
      4 C          61.4004   87.1929   10.3372 C.ar    1  UNL1        0.0506
      5 C          60.5227   86.3795    9.4329 C.ar    1  UNL1        0.0147
      6 C          59.7041   87.0569    8.3742 C.ar    1  UNL1        0.0013
      7 C          59.7632   88.5477    8.2198 C.ar    1  UNL1        0.0001
      8 C          60.6409   89.3612    9.1241 C.ar    1  UNL1        0.0014
      9 C          61.4595   88.6838   10.1828 C.ar    1  UNL1        0.0179
     10 C          62.4093   89.2192   11.2130 C.2     1  UNL1        0.0546
     11 C          62.7681   90.6614   11.4164 C.2     1  UNL1        0.0007
     12 H          62.4754   85.8923   11.7890 H       1  UNL1        0.1552
     13 C          63.7385   91.0482   12.4930 C.2     1  UNL1       -0.0160
     14 C          63.4437   90.7115   13.9247 C.2     1  UNL1       -0.0038
     15 C          64.4140   91.0982   15.0012 C.2     1  UNL1        0.0025
     16 C          65.6790   91.8218   14.6460 C.2     1  UNL1        0.0366
     17 C          66.8153   92.3274   15.4845 C.2     1  UNL1        0.1233
     18 N          67.8124   92.9767   14.5711 N.2     1  UNL1       -0.1467
     19 N          67.2923   92.8723   13.1680 N.2     1  UNL1       -0.1520
     20 C          65.9737   92.1585   13.2143 C.2     1  UNL1        0.0864
     21 C          65.0035   91.7718   12.1378 C.3     1  UNL1        0.0739
@<TRIPOS>BOND
     1     1     2    2
     2     2     3   am
     3     3     4    1
     4     4     5   ar
     5     5     6   ar
     6     6     7   ar
     7     7     8   ar
     8     8     9   ar
     9     9    10    1
    10    10    11    2
    11    11    13    1
    12    13    14    2
    13    14    15    1
    14    15    16    2
    15    16    17    1
    16    17    18    2
    17    18    19    1
    18    19    20    2
    19    20    21    1
    20    10     2    1
    21    21    13    1
    22     9     4   ar
    23    20    16    1
    24     3    12    1
@<TRIPOS>MOLECULE
*****
 21 24 0 0 0
SMALL
GASTEIGER

@<TRIPOS>ATOM
      1 O          62.2648   85.3568   11.4471 O.2     1  UNL1       -0.2698
      2 C          62.7487   86.6523   12.0282 C.2     1  UNL1        0.2495
      3 N          62.4764   88.0213   11.4789 N.am    1  UNL1       -0.2804
      4 C          63.1492   89.0213   12.3718 C.ar    1  UNL1        0.0506
      5 C          63.2242   90.5187   12.3244 C.ar    1  UNL1        0.0147
      6 C          63.9873   91.2651   13.3782 C.ar    1  UNL1        0.0013
      7 C          64.6754   90.5141   14.4794 C.ar    1  UNL1        0.0001
      8 C          64.6004   89.0168   14.5268 C.ar    1  UNL1        0.0014
      9 C          63.8373   88.2704   13.4730 C.ar    1  UNL1        0.0179
     10 C          63.5897   86.8063   13.2606 C.2     1  UNL1        0.0546
     11 C          64.0946   85.6918   14.1284 C.2     1  UNL1        0.0007
     12 H          61.9488   88.2273   10.6737 H       1  UNL1        0.1552
     13 C          63.7644   84.2684   13.7890 C.2     1  UNL1       -0.0160
     14 C          64.6537   83.4924   12.8632 C.2     1  UNL1       -0.0038
     15 C          64.3235   82.0692   12.5238 C.2     1  UNL1        0.0025
     16 C          63.1040   81.4219   13.1102 C.2     1  UNL1        0.0366
     17 C          62.5279   80.0451   12.9597 C.2     1  UNL1        0.1233
     18 N          61.2825   79.9703   13.7924 N.2     1  UNL1       -0.1467
     19 N          61.0889   81.3007   14.4576 N.2     1  UNL1       -0.1520
     20 C          62.2147   82.1979   14.0359 C.2     1  UNL1        0.0864
     21 C          62.5449   83.6211   14.3753 C.3     1  UNL1        0.0739
@<TRIPOS>BOND
     1     1     2    2
     2     2     3   am
     3     3     4    1
     4     4     5   ar
     5     5     6   ar
     6     6     7   ar
     7     7     8   ar
     8     8     9   ar
     9     9    10    1
    10    10    11    2
    11    11    13    1
    12    13    14    2
    13    14    15    1
    14    15    16    2
    15    16    17    1
    16    17    18    2
    17    18    19    1
    18    19    20    2
    19    20    21    1
    20    10     2    1
    21    21    13    1
    22     9     4   ar
    23    20    16    1
    24     3    12    1
@<TRIPOS>MOLECULE
*****
 21 24 0 0 0
SMALL
GASTEIGER

@<TRIPOS>ATOM
      1 O          62.8819   88.6365   13.0824 O.2     1  UNL1       -0.2698
      2 C          63.8293   89.7766   13.3118 C.2     1  UNL1        0.2495
      3 N          64.7332   89.9472   14.4966 N.am    1  UNL1       -0.2804
      4 C          65.5016   91.2224   14.3137 C.ar    1  UNL1        0.0506
      5 C          66.5365   91.9010   15.1612 C.ar    1  UNL1        0.0147
      6 C          67.1424   93.1972   14.7109 C.ar    1  UNL1        0.0013
      7 C          66.7133   93.8147   13.4130 C.ar    1  UNL1        0.0001
      8 C          65.6784   93.1361   12.5654 C.ar    1  UNL1        0.0014
      9 C          65.0726   91.8400   13.0158 C.ar    1  UNL1        0.0179
     10 C          64.0390   90.9464   12.3966 C.2     1  UNL1        0.0546
     11 C          63.3382   91.1814   11.0913 C.2     1  UNL1        0.0007
     12 H          64.8089   89.3305   15.2602 H       1  UNL1        0.1552
     13 C          62.3223   90.1945   10.5971 C.2     1  UNL1       -0.0160
     14 C          60.8587   90.4961   10.7271 C.2     1  UNL1       -0.0038
     15 C          59.8429   89.5093   10.2329 C.2     1  UNL1        0.0025
     16 C          60.2907   88.2209    9.6088 C.2     1  UNL1        0.0366
     17 C          59.5265   87.0648    9.0348 C.2     1  UNL1        0.1233
     18 N          60.5178   86.0488    8.5502 N.2     1  UNL1       -0.1467
     19 N          61.8947   86.5769    8.8245 N.2     1  UNL1       -0.1520
     20 C          61.7543   87.9194    9.4788 C.2     1  UNL1        0.0864
     21 C          62.7701   88.9062    9.9729 C.3     1  UNL1        0.0739
@<TRIPOS>BOND
     1     1     2    2
     2     2     3   am
     3     3     4    1
     4     4     5   ar
     5     5     6   ar
     6     6     7   ar
     7     7     8   ar
     8     8     9   ar
     9     9    10    1
    10    10    11    2
    11    11    13    1
    12    13    14    2
    13    14    15    1
    14    15    16    2
    15    16    17    1
    16    17    18    2
    17    18    19    1
    18    19    20    2
    19    20    21    1
    20    10     2    1
    21    21    13    1
    22     9     4   ar
    23    20    16    1
    24     3    12    1
@<TRIPOS>MOLECULE
*****
 21 24 0 0 0
SMALL
GASTEIGER

@<TRIPOS>ATOM
      1 O          64.3523   84.7684   14.4548 O.2     1  UNL1       -0.2698
      2 C          64.1703   86.2136   14.0966 C.2     1  UNL1        0.2495
      3 N          64.6569   87.3876   14.8935 N.am    1  UNL1       -0.2804
      4 C          64.2571   88.6381   14.1680 C.ar    1  UNL1        0.0506
      5 C          64.4663   90.0902   14.4805 C.ar    1  UNL1        0.0147
      6 C          63.9419   91.1412   13.5476 C.ar    1  UNL1        0.0013
      7 C          63.2083   90.7401   12.3022 C.ar    1  UNL1        0.0001
      8 C          62.9990   89.2880   11.9897 C.ar    1  UNL1        0.0014
      9 C          63.5235   88.2370   12.9227 C.ar    1  UNL1        0.0179
     10 C          63.4699   86.7386   12.8785 C.2     1  UNL1        0.0546
     11 C          62.8284   85.9106   11.8048 C.2     1  UNL1        0.0007
     12 H          65.1517   87.3448   15.7436 H       1  UNL1        0.1552
     13 C          62.8539   84.4135   11.8963 C.2     1  UNL1       -0.0160
     14 C          63.5660   83.6102   10.8487 C.2     1  UNL1       -0.0038
     15 C          63.5915   82.1132   10.9401 C.2     1  UNL1        0.0025
     16 C          62.9048   81.4196   12.0791 C.2     1  UNL1        0.0366
     17 C          62.7619   79.9685   12.4311 C.2     1  UNL1        0.1233
     18 N          61.9614   79.8751   13.6962 N.2     1  UNL1       -0.1467
     19 N          61.6096   81.2684   14.1261 N.2     1  UNL1       -0.1520
     20 C          62.1927   82.2230   13.1267 C.2     1  UNL1        0.0864
     21 C          62.1672   83.7199   13.0353 C.3     1  UNL1        0.0739
@<TRIPOS>BOND
     1     1     2    2
     2     2     3   am
     3     3     4    1
     4     4     5   ar
     5     5     6   ar
     6     6     7   ar
     7     7     8   ar
     8     8     9   ar
     9     9    10    1
    10    10    11    2
    11    11    13    1
    12    13    14    2
    13    14    15    1
    14    15    16    2
    15    16    17    1
    16    17    18    2
    17    18    19    1
    18    19    20    2
    19    20    21    1
    20    10     2    1
    21    21    13    1
    22     9     4   ar
    23    20    16    1
    24     3    12    1
@<TRIPOS>MOLECULE
*****
 21 24 0 0 0
SMALL
GASTEIGER

@<TRIPOS>ATOM
      1 O          62.2305   86.1766   12.1089 O.2     1  UNL1       -0.2698
      2 C          62.8962   87.4650   12.4921 C.2     1  UNL1        0.2495
      3 N          62.7533   88.7772   11.7798 N.am    1  UNL1       -0.2804
      4 C          63.5905   89.7906   12.5024 C.ar    1  UNL1        0.0506
      5 C          63.8369   91.2493   12.2548 C.ar    1  UNL1        0.0147
      6 C          64.7436   92.0221   13.1662 C.ar    1  UNL1        0.0013
      7 C          65.4039   91.3361   14.3253 C.ar    1  UNL1        0.0001
      8 C          65.1575   89.8773   14.5729 C.ar    1  UNL1        0.0014
      9 C          64.2508   89.1046   13.6615 C.ar    1  UNL1        0.0179
     10 C          63.8217   87.6673   13.6551 C.2     1  UNL1        0.0546
     11 C          64.2440   86.6168   14.6390 C.2     1  UNL1        0.0007
     12 H          62.2061   88.9441   10.9785 H       1  UNL1        0.1552
     13 C          63.7301   85.2139   14.5051 C.2     1  UNL1       -0.0160
     14 C          62.6393   84.7250   15.4113 C.2     1  UNL1       -0.0038
     15 C          62.1253   83.3222   15.2774 C.2     1  UNL1        0.0025
     16 C          62.7023   82.4082   14.2374 C.2     1  UNL1        0.0366
     17 C          62.3998   80.9850   13.8728 C.2     1  UNL1        0.1233
     18 N          63.3037   80.5942   12.7413 N.2     1  UNL1       -0.1467
     19 N          64.1648   81.7759   12.4065 N.2     1  UNL1       -0.1520
     20 C          63.7931   82.8970   13.3312 C.2     1  UNL1        0.0864
     21 C          64.3070   84.2998   13.4650 C.3     1  UNL1        0.0739
@<TRIPOS>BOND
     1     1     2    2
     2     2     3   am
     3     3     4    1
     4     4     5   ar
     5     5     6   ar
     6     6     7   ar
     7     7     8   ar
     8     8     9   ar
     9     9    10    1
    10    10    11    2
    11    11    13    1
    12    13    14    2
    13    14    15    1
    14    15    16    2
    15    16    17    1
    16    17    18    2
    17    18    19    1
    18    19    20    2
    19    20    21    1
    20    10     2    1
    21    21    13    1
    22     9     4   ar
    23    20    16    1
    24     3    12    1
@<TRIPOS>MOLECULE
*****
 21 24 0 0 0
SMALL
GASTEIGER

@<TRIPOS>ATOM
      1 O          64.3698   92.3994   11.9916 O.2     1  UNL1       -0.2698
      2 C          63.5591   91.2144   11.5575 C.2     1  UNL1        0.2495
      3 N          62.7334   91.1207   10.3087 N.am    1  UNL1       -0.2804
      4 C          62.0957   89.7634   10.2752 C.ar    1  UNL1        0.0506
      5 C          61.1778   89.1099    9.2852 C.ar    1  UNL1        0.0147
      6 C          60.6915   87.7110    9.5232 C.ar    1  UNL1        0.0013
      7 C          61.1231   86.9658   10.7514 C.ar    1  UNL1        0.0001
      8 C          62.0410   87.6194   11.7415 C.ar    1  UNL1        0.0014
      9 C          62.5273   89.0182   11.5034 C.ar    1  UNL1        0.0179
     10 C          63.4317   89.9149   12.2958 C.2     1  UNL1        0.0546
     11 C          64.0927   89.5723   13.5980 C.2     1  UNL1        0.0007
     12 H          62.6284   91.8263    9.6301 H       1  UNL1        0.1552
     13 C          64.9754   90.5765   14.2781 C.2     1  UNL1       -0.0160
     14 C          64.4900   91.2945   15.5023 C.2     1  UNL1       -0.0038
     15 C          65.3726   92.2987   16.1824 C.2     1  UNL1        0.0025
     16 C          66.7408   92.5848   15.6382 C.2     1  UNL1        0.0366
     17 C          67.8268   93.5151   16.0911 C.2     1  UNL1        0.1233
     18 N          68.9834   93.3721   15.1468 N.2     1  UNL1       -0.1467
     19 N          68.6124   92.3533   14.1103 N.2     1  UNL1       -0.1520
     20 C          67.2263   91.8667   14.4140 C.2     1  UNL1        0.0864
     21 C          66.3437   90.8626   13.7339 C.3     1  UNL1        0.0739
@<TRIPOS>BOND
     1     1     2    2
     2     2     3   am
     3     3     4    1
     4     4     5   ar
     5     5     6   ar
     6     6     7   ar
     7     7     8   ar
     8     8     9   ar
     9     9    10    1
    10    10    11    2
    11    11    13    1
    12    13    14    2
    13    14    15    1
    14    15    16    2
    15    16    17    1
    16    17    18    2
    17    18    19    1
    18    19    20    2
    19    20    21    1
    20    10     2    1
    21    21    13    1
    22     9     4   ar
    23    20    16    1
    24     3    12    1
@<TRIPOS>MOLECULE
*****
 21 24 0 0 0
SMALL
GASTEIGER

@<TRIPOS>ATOM
      1 O          61.6725   91.2060   11.6693 O.2     1  UNL1       -0.2698
      2 C          61.2771   90.0794   10.7614 C.2     1  UNL1        0.2495
      3 N          60.2203   90.1332    9.6982 N.am    1  UNL1       -0.2804
      4 C          60.1592   88.7882    9.0369 C.ar    1  UNL1        0.0506
      5 C          59.3073   88.2550    7.9234 C.ar    1  UNL1        0.0147
      6 C          59.4743   86.8369    7.4644 C.ar    1  UNL1        0.0013
      7 C          60.4933   85.9518    8.1188 C.ar    1  UNL1        0.0001
      8 C          61.3453   86.4850    9.2324 C.ar    1  UNL1        0.0014
      9 C          61.1782   87.9031    9.6914 C.ar    1  UNL1        0.0179
     10 C          61.8691   88.7012   10.7571 C.2     1  UNL1        0.0546
     11 C          62.9604   88.2076   11.6601 C.2     1  UNL1        0.0007
     12 H          59.6645   90.9141    9.4738 H       1  UNL1        0.1552
     13 C          63.5591   89.1256   12.6844 C.2     1  UNL1       -0.0160
     14 C          63.5317   88.7493   14.1361 C.2     1  UNL1       -0.0038
     15 C          64.1303   89.6672   15.1603 C.2     1  UNL1        0.0025
     16 C          64.7563   90.9615   14.7327 C.2     1  UNL1        0.0366
     17 C          65.4202   92.0600   15.5089 C.2     1  UNL1        0.1233
     18 N          65.8579   93.1153   14.5369 N.2     1  UNL1       -0.1467
     19 N          65.4645   92.6690   13.1599 N.2     1  UNL1       -0.1520
     20 C          64.7836   91.3379   13.2810 C.2     1  UNL1        0.0864
     21 C          64.1850   90.4200   12.2568 C.3     1  UNL1        0.0739
@<TRIPOS>BOND
     1     1     2    2
     2     2     3   am
     3     3     4    1
     4     4     5   ar
     5     5     6   ar
     6     6     7   ar
     7     7     8   ar
     8     8     9   ar
     9     9    10    1
    10    10    11    2
    11    11    13    1
    12    13    14    2
    13    14    15    1
    14    15    16    2
    15    16    17    1
    16    17    18    2
    17    18    19    1
    18    19    20    2
    19    20    21    1
    20    10     2    1
    21    21    13    1
    22     9     4   ar
    23    20    16    1
    24     3    12    1
@<TRIPOS>MOLECULE
*****
 21 24 0 0 0
SMALL
GASTEIGER

@<TRIPOS>ATOM
      1 O          62.9465   87.2731   12.5832 O.2     1  UNL1       -0.2698
      2 C          63.0310   85.7765   12.6371 C.2     1  UNL1        0.2495
      3 N          62.7398   84.8356   11.5057 N.am    1  UNL1       -0.2804
      4 C          62.9504   83.4356   12.0011 C.ar    1  UNL1        0.0506
      5 C          62.8129   82.1017   11.3289 C.ar    1  UNL1        0.0147
      6 C          63.0968   80.8434   12.0944 C.ar    1  UNL1        0.0013
      7 C          63.5182   80.9189   13.5320 C.ar    1  UNL1        0.0001
      8 C          63.6558   82.2528   14.2041 C.ar    1  UNL1        0.0014
      9 C          63.3718   83.5111   13.4387 C.ar    1  UNL1        0.0179
     10 C          63.4217   84.9578   13.8317 C.2     1  UNL1        0.0546
     11 C          63.7963   85.4921   15.1823 C.2     1  UNL1        0.0007
     12 H          62.4596   85.0921   10.5974 H       1  UNL1        0.1552
     13 C          63.8013   86.9719   15.4286 C.2     1  UNL1       -0.0160
     14 C          63.0499   87.5405   16.5957 C.2     1  UNL1       -0.0038
     15 C          63.0548   89.0201   16.8420 C.2     1  UNL1        0.0025
     16 C          63.8111   89.9311   15.9211 C.2     1  UNL1        0.0366
     17 C          63.9969   91.4195   15.9114 C.2     1  UNL1        0.1233
     18 N          64.8631   91.7708   14.7382 N.2     1  UNL1       -0.1467
     19 N          65.2127   90.4995   14.0229 N.2     1  UNL1       -0.1520
     20 C          64.5625   89.3625   14.7540 C.2     1  UNL1        0.0864
     21 C          64.5576   87.8829   14.5077 C.3     1  UNL1        0.0739
@<TRIPOS>BOND
     1     1     2    2
     2     2     3   am
     3     3     4    1
     4     4     5   ar
     5     5     6   ar
     6     6     7   ar
     7     7     8   ar
     8     8     9   ar
     9     9    10    1
    10    10    11    2
    11    11    13    1
    12    13    14    2
    13    14    15    1
    14    15    16    2
    15    16    17    1
    16    17    18    2
    17    18    19    1
    18    19    20    2
    19    20    21    1
    20    10     2    1
    21    21    13    1
    22     9     4   ar
    23    20    16    1
    24     3    12    1
