@<TRIPOS>MOLECULE
*****
 41 47 0 0 0
SMALL
GASTEIGER

@<TRIPOS>ATOM
      1 C          61.8585   92.7620    1.5393 C.2     1  UNL1       -0.0378
      2 C          62.7440   91.8780    2.3666 C.2     1  UNL1       -0.0080
      3 C          62.2179   91.2587    3.6275 C.2     1  UNL1        0.0022
      4 C          60.8066   91.5234    4.0610 C.2     1  UNL1        0.0350
      5 C          60.0164   91.0555    5.2470 C.2     1  UNL1        0.1040
      6 N          58.6426   91.6503    5.1527 N.2     1  UNL1       -0.1483
      7 N          58.5838   92.4858    3.9083 N.2     1  UNL1       -0.1520
      8 C          59.9212   92.4074    3.2336 C.2     1  UNL1        0.0860
      9 C          60.4471   93.0267    1.9728 C.3     1  UNL1        0.0697
     10 C          64.4952   95.7777   -4.0075 C.ar    1  UNL1        0.1385
     11 C          65.5690   96.6853   -3.4847 C.ar    1  UNL1        0.0382
     12 C          65.8378   96.7577   -2.0108 C.ar    1  UNL1        0.0175
     13 C          65.0329   95.9226   -1.0596 C.ar    1  UNL1        0.0469
     14 C          63.9591   95.0150   -1.5824 C.ar    1  UNL1        0.0022
     15 C          63.6902   94.9425   -3.0563 C.ar    1  UNL1        0.0343
     16 C          63.3330   94.3159   -0.4123 C.3     1  UNL1        0.0928
     17 C          62.3470   93.5196   -1.2147 C.3     1  UNL1        0.0179
     18 C          62.3845   93.3814    0.2784 C.3     1  UNL1        0.0315
     19 C          64.0198   94.7913    0.8336 C.2     1  UNL1        0.2293
     20 O          63.7103   94.3511    2.2337 O.2     1  UNL1       -0.2744
     21 N          65.0704   95.7844    0.4335 N.am    1  UNL1       -0.2839
     22 H          65.6779   96.2616    1.0438 H       1  UNL1        0.1549
     23 C          65.3644   95.5374   -6.4440 C.3     1  UNL1        0.2525
     24 O          64.2263   95.7051   -5.4814 O.3     1  UNL1       -0.4714
     25 C          60.5128   90.1514    6.3362 C.2     1  UNL1        0.0209
     26 C          59.5605   89.2286    7.0371 C.2     1  UNL1        0.0016
     27 C          60.0569   88.3245    8.1263 C.ar    1  UNL1        0.0000
     28 C          60.5000   86.9293    7.7991 C.ar    1  UNL1       -0.0003
     29 C          60.9964   86.0252    8.8882 C.ar    1  UNL1       -0.0029
     30 C          61.0497   86.5163   10.3045 C.ar    1  UNL1       -0.0061
     31 C          60.6065   87.9115   10.6317 C.ar    1  UNL1       -0.0029
     32 C          60.1101   88.8156    9.5426 C.ar    1  UNL1       -0.0003
     33 C          61.5460   85.6121   11.3936 C.3     1  UNL1        0.0993
     34 N          62.5181   86.1287   12.4124 N.3     1  UNL1       -0.2648
     35 C          62.8578   87.5893   12.4520 C.3     1  UNL1        0.1023
     36 C          63.8299   88.1060   13.4709 C.3     1  UNL1        0.1312
     37 C          64.1694   89.5665   13.5104 C.3     1  UNL1        0.0335
     38 O          64.4623   87.1621   14.4502 O.3     1  UNL1       -0.3559
     39 C          64.1227   85.7016   14.4106 C.3     1  UNL1        0.1312
     40 C          64.7552   84.7578   15.3900 C.3     1  UNL1        0.0335
     41 C          63.1506   85.1849   13.3918 C.3     1  UNL1        0.1023
@<TRIPOS>BOND
     1    23    24    1
     2    24    10    1
     3    10    11   ar
     4    11    12   ar
     5    12    13   ar
     6    13    14   ar
     7    14    15   ar
     8    14    16    1
     9    16    17    1
    10    17    18    1
    11    18     1    1
    12     1     2    2
    13     2     3    1
    14     3     4    2
    15     4     5    1
    16     5    25    1
    17    25    26    2
    18    26    27    1
    19    27    28   ar
    20    28    29   ar
    21    29    30   ar
    22    30    33    1
    23    33    34    1
    24    34    35    1
    25    35    36    1
    26    36    37    1
    27    36    38    1
    28    38    39    1
    29    39    40    1
    30    39    41    1
    31    30    31   ar
    32    31    32   ar
    33     5     6    2
    34     6     7    1
    35     7     8    2
    36     8     9    1
    37    16    19    1
    38    19    20    2
    39    19    21   am
    40    15    10   ar
    41    18    16    1
    42     9     1    1
    43    21    13    1
    44     8     4    1
    45    32    27   ar
    46    41    34    1
    47    21    22    1
@<TRIPOS>MOLECULE
*****
 41 47 0 0 0
SMALL
GASTEIGER

@<TRIPOS>ATOM
      1 C          60.9570   92.8786    2.0215 C.2     1  UNL1       -0.0378
      2 C          61.9305   92.1447    2.8954 C.2     1  UNL1       -0.0080
      3 C          61.4503   91.4531    4.1369 C.2     1  UNL1        0.0022
      4 C          59.9967   91.4955    4.5045 C.2     1  UNL1        0.0350
      5 C          59.2357   90.9122    5.6580 C.2     1  UNL1        0.1040
      6 N          57.7918   91.2856    5.4971 N.2     1  UNL1       -0.1483
      7 N          57.6605   92.0997    4.2441 N.2     1  UNL1       -0.1520
      8 C          59.0232   92.2294    3.6306 C.2     1  UNL1        0.0860
      9 C          59.5033   92.9209    2.3891 C.3     1  UNL1        0.0697
     10 C          62.8906   95.8506   -3.8300 C.ar    1  UNL1        0.1385
     11 C          61.9772   95.2834   -4.8759 C.ar    1  UNL1        0.0382
     12 C          60.9274   94.2831   -4.4922 C.ar    1  UNL1        0.0175
     13 C          60.7909   93.8501   -3.0626 C.ar    1  UNL1        0.0469
     14 C          61.7042   94.4173   -2.0167 C.ar    1  UNL1        0.0022
     15 C          62.7541   95.4176   -2.4003 C.ar    1  UNL1        0.0343
     16 C          61.3350   93.8055   -0.6978 C.3     1  UNL1        0.0928
     17 C          62.3708   94.5324    0.1077 C.3     1  UNL1        0.0179
     18 C          61.4371   93.5701    0.7801 C.3     1  UNL1        0.0315
     19 C          60.1935   92.8602   -0.9287 C.2     1  UNL1        0.2293
     20 O          59.5085   92.0327    0.1182 O.2     1  UNL1       -0.2744
     21 N          59.8571   92.8877   -2.3902 N.am    1  UNL1       -0.2839
     22 H          59.1481   92.3658   -2.8308 H       1  UNL1        0.1549
     23 C          64.9773   96.4947   -5.2373 C.3     1  UNL1        0.2525
     24 O          63.9405   96.8509   -4.2136 O.3     1  UNL1       -0.4714
     25 C          59.8166   90.0984    6.7762 C.2     1  UNL1        0.0209
     26 C          59.4591   88.6480    6.9124 C.2     1  UNL1        0.0016
     27 C          60.0400   87.8342    8.0306 C.ar    1  UNL1        0.0000
     28 C          59.9696   88.3396    9.4411 C.ar    1  UNL1       -0.0003
     29 C          60.5504   87.5258   10.5593 C.ar    1  UNL1       -0.0029
     30 C          61.2016   86.2066   10.2669 C.ar    1  UNL1       -0.0061
     31 C          61.2720   85.7011    8.8564 C.ar    1  UNL1       -0.0029
     32 C          60.6912   86.5149    7.7382 C.ar    1  UNL1       -0.0003
     33 C          61.7824   85.3928   11.3851 C.3     1  UNL1        0.0993
     34 N          62.6477   86.0492   12.4196 N.3     1  UNL1       -0.2648
     35 C          62.8897   87.5287   12.3658 C.3     1  UNL1        0.1023
     36 C          63.7550   88.1852   13.4003 C.3     1  UNL1        0.1312
     37 C          63.9969   89.6646   13.3465 C.3     1  UNL1        0.0335
     38 O          64.3784   87.3623   14.4886 O.3     1  UNL1       -0.3559
     39 C          64.1364   85.8830   14.5423 C.3     1  UNL1        0.1312
     40 C          64.7598   85.0602   15.6306 C.3     1  UNL1        0.0335
     41 C          63.2711   85.2264   13.5079 C.3     1  UNL1        0.1023
@<TRIPOS>BOND
     1    23    24    1
     2    24    10    1
     3    10    11   ar
     4    11    12   ar
     5    12    13   ar
     6    13    14   ar
     7    14    15   ar
     8    14    16    1
     9    16    17    1
    10    17    18    1
    11    18     1    1
    12     1     2    2
    13     2     3    1
    14     3     4    2
    15     4     5    1
    16     5    25    1
    17    25    26    2
    18    26    27    1
    19    27    28   ar
    20    28    29   ar
    21    29    30   ar
    22    30    33    1
    23    33    34    1
    24    34    35    1
    25    35    36    1
    26    36    37    1
    27    36    38    1
    28    38    39    1
    29    39    40    1
    30    39    41    1
    31    30    31   ar
    32    31    32   ar
    33     5     6    2
    34     6     7    1
    35     7     8    2
    36     8     9    1
    37    16    19    1
    38    19    20    2
    39    19    21   am
    40    15    10   ar
    41    18    16    1
    42     9     1    1
    43    21    13    1
    44     8     4    1
    45    32    27   ar
    46    41    34    1
    47    21    22    1
@<TRIPOS>MOLECULE
*****
 41 47 0 0 0
SMALL
GASTEIGER

@<TRIPOS>ATOM
      1 C          61.5657   92.5714    1.6964 C.2     1  UNL1       -0.0378
      2 C          62.4718   91.9586    2.7228 C.2     1  UNL1       -0.0080
      3 C          61.9051   91.4478    4.0143 C.2     1  UNL1        0.0022
      4 C          60.4322   91.5499    4.2794 C.2     1  UNL1        0.0350
      5 C          59.5923   91.1361    5.4513 C.2     1  UNL1        0.1040
      6 N          58.1671   91.4931    5.1493 N.2     1  UNL1       -0.1483
      7 N          58.1262   92.1275    3.7907 N.2     1  UNL1       -0.1520
      8 C          59.5261   92.1626    3.2531 C.2     1  UNL1        0.0860
      9 C          60.0928   92.6734    1.9616 C.3     1  UNL1        0.0697
     10 C          64.3359   95.1526   -4.0023 C.ar    1  UNL1        0.1385
     11 C          65.2106   96.2783   -3.5355 C.ar    1  UNL1        0.0382
     12 C          65.3071   96.5961   -2.0727 C.ar    1  UNL1        0.0175
     13 C          64.5290   95.7882   -1.0768 C.ar    1  UNL1        0.0469
     14 C          63.6544   94.6625   -1.5435 C.ar    1  UNL1        0.0022
     15 C          63.5578   94.3447   -3.0063 C.ar    1  UNL1        0.0343
     16 C          63.0100   94.0456   -0.3377 C.3     1  UNL1        0.0928
     17 C          62.2363   93.0034   -1.0894 C.3     1  UNL1        0.0179
     18 C          62.1323   93.0821    0.4049 C.3     1  UNL1        0.0315
     19 C          63.4863   94.7900    0.8743 C.2     1  UNL1        0.2293
     20 O          63.0929   94.5071    2.2939 O.2     1  UNL1       -0.2744
     21 N          64.4251   95.8670    0.4176 N.am    1  UNL1       -0.2839
     22 H          64.8913   96.5123    0.9969 H       1  UNL1        0.1549
     23 C          65.1497   95.5172   -6.4425 C.3     1  UNL1        0.2525
     24 O          64.2393   94.8348   -5.4650 O.3     1  UNL1       -0.4714
     25 C          60.0903   90.4804    6.7052 C.2     1  UNL1        0.0209
     26 C          59.5446   89.1467    7.1216 C.2     1  UNL1        0.0016
     27 C          60.0425   88.4909    8.3755 C.ar    1  UNL1        0.0000
     28 C          60.3123   89.3174    9.5978 C.ar    1  UNL1       -0.0003
     29 C          60.8102   88.6617   10.8517 C.ar    1  UNL1       -0.0029
     30 C          61.0383   87.1795   10.8831 C.ar    1  UNL1       -0.0061
     31 C          60.7685   86.3530    9.6608 C.ar    1  UNL1       -0.0029
     32 C          60.2706   87.0087    8.4069 C.ar    1  UNL1       -0.0003
     33 C          61.5362   86.5238   12.1370 C.3     1  UNL1        0.0993
     34 N          62.1918   85.1765   12.0693 N.3     1  UNL1       -0.2648
     35 C          62.9467   84.7707   10.8382 C.3     1  UNL1        0.1023
     36 C          63.6024   83.4233   10.7705 C.3     1  UNL1        0.1312
     37 C          64.3572   83.0176    9.5394 C.3     1  UNL1        0.0335
     38 O          63.5033   82.4817   11.9340 O.3     1  UNL1       -0.3559
     39 C          62.7484   82.8874   13.1650 C.3     1  UNL1        0.1312
     40 C          62.6494   81.9458   14.3284 C.3     1  UNL1        0.0335
     41 C          62.0927   84.2348   13.2327 C.3     1  UNL1        0.1023
@<TRIPOS>BOND
     1    23    24    1
     2    24    10    1
     3    10    11   ar
     4    11    12   ar
     5    12    13   ar
     6    13    14   ar
     7    14    15   ar
     8    14    16    1
     9    16    17    1
    10    17    18    1
    11    18     1    1
    12     1     2    2
    13     2     3    1
    14     3     4    2
    15     4     5    1
    16     5    25    1
    17    25    26    2
    18    26    27    1
    19    27    28   ar
    20    28    29   ar
    21    29    30   ar
    22    30    33    1
    23    33    34    1
    24    34    35    1
    25    35    36    1
    26    36    37    1
    27    36    38    1
    28    38    39    1
    29    39    40    1
    30    39    41    1
    31    30    31   ar
    32    31    32   ar
    33     5     6    2
    34     6     7    1
    35     7     8    2
    36     8     9    1
    37    16    19    1
    38    19    20    2
    39    19    21   am
    40    15    10   ar
    41    18    16    1
    42     9     1    1
    43    21    13    1
    44     8     4    1
    45    32    27   ar
    46    41    34    1
    47    21    22    1
@<TRIPOS>MOLECULE
*****
 41 47 0 0 0
SMALL
GASTEIGER

@<TRIPOS>ATOM
      1 C          60.9542   92.6121    2.6027 C.2     1  UNL1       -0.0378
      2 C          61.7789   91.5741    3.3044 C.2     1  UNL1       -0.0080
      3 C          61.1791   90.7656    4.4166 C.2     1  UNL1        0.0022
      4 C          59.7547   90.9951    4.8269 C.2     1  UNL1        0.0350
      5 C          58.8981   90.3565    5.8796 C.2     1  UNL1        0.1040
      6 N          57.5440   90.9997    5.8286 N.2     1  UNL1       -0.1483
      7 N          57.5638   92.0360    4.7442 N.2     1  UNL1       -0.1520
      8 C          58.9300   92.0331    4.1251 C.2     1  UNL1        0.0860
      9 C          59.5297   92.8416    3.0131 C.3     1  UNL1        0.0697
     10 C          64.0004   96.3179   -2.2757 C.ar    1  UNL1        0.1385
     11 C          65.3844   96.5795   -1.7599 C.ar    1  UNL1        0.0382
     12 C          65.8002   96.0426   -0.4223 C.ar    1  UNL1        0.0175
     13 C          64.8319   95.2442    0.3992 C.ar    1  UNL1        0.0469
     14 C          63.4479   94.9826   -0.1166 C.ar    1  UNL1        0.0022
     15 C          63.0321   95.5194   -1.4541 C.ar    1  UNL1        0.0343
     16 C          62.7169   94.1685    0.9095 C.3     1  UNL1        0.0928
     17 C          61.4295   94.0730    0.1457 C.3     1  UNL1        0.0179
     18 C          61.5539   93.4206    1.4907 C.3     1  UNL1        0.0315
     19 C          63.6492   93.9270    2.0596 C.2     1  UNL1        0.2293
     20 O          63.3303   93.1561    3.3061 O.2     1  UNL1       -0.2744
     21 N          64.9563   94.5918    1.7442 N.am    1  UNL1       -0.2839
     22 H          65.7555   94.5987    2.3191 H       1  UNL1        0.1549
     23 C          62.7376   96.0190   -4.5265 C.3     1  UNL1        0.2525
     24 O          63.5846   96.8548   -3.6132 O.3     1  UNL1       -0.4714
     25 C          59.3214   89.2660    6.8186 C.2     1  UNL1        0.0209
     26 C          60.4480   89.5001    7.7808 C.2     1  UNL1        0.0016
     27 C          60.8713   88.4097    8.7199 C.ar    1  UNL1        0.0000
     28 C          60.5415   86.9803    8.4067 C.ar    1  UNL1       -0.0003
     29 C          60.9647   85.8898    9.3457 C.ar    1  UNL1       -0.0029
     30 C          61.7178   86.2287   10.5978 C.ar    1  UNL1       -0.0061
     31 C          62.0477   87.6581   10.9110 C.ar    1  UNL1       -0.0029
     32 C          61.6244   88.7486    9.9720 C.ar    1  UNL1       -0.0003
     33 C          62.1411   85.1382   11.5368 C.3     1  UNL1        0.0993
     34 N          62.7073   85.4845   12.8819 N.3     1  UNL1       -0.2648
     35 C          62.6106   84.5025   14.0117 C.3     1  UNL1        0.1023
     36 C          63.1767   84.8488   15.3569 C.3     1  UNL1        0.1312
     37 C          63.0800   83.8668   16.4867 C.3     1  UNL1        0.0335
     38 O          63.8396   86.1770   15.5723 O.3     1  UNL1       -0.3559
     39 C          63.9363   87.1589   14.4425 C.3     1  UNL1        0.1312
     40 C          64.5993   88.4871   14.6580 C.3     1  UNL1        0.0335
     41 C          63.3702   86.8127   13.0973 C.3     1  UNL1        0.1023
@<TRIPOS>BOND
     1    23    24    1
     2    24    10    1
     3    10    11   ar
     4    11    12   ar
     5    12    13   ar
     6    13    14   ar
     7    14    15   ar
     8    14    16    1
     9    16    17    1
    10    17    18    1
    11    18     1    1
    12     1     2    2
    13     2     3    1
    14     3     4    2
    15     4     5    1
    16     5    25    1
    17    25    26    2
    18    26    27    1
    19    27    28   ar
    20    28    29   ar
    21    29    30   ar
    22    30    33    1
    23    33    34    1
    24    34    35    1
    25    35    36    1
    26    36    37    1
    27    36    38    1
    28    38    39    1
    29    39    40    1
    30    39    41    1
    31    30    31   ar
    32    31    32   ar
    33     5     6    2
    34     6     7    1
    35     7     8    2
    36     8     9    1
    37    16    19    1
    38    19    20    2
    39    19    21   am
    40    15    10   ar
    41    18    16    1
    42     9     1    1
    43    21    13    1
    44     8     4    1
    45    32    27   ar
    46    41    34    1
    47    21    22    1
