@<TRIPOS>MOLECULE
*****
 29 32 0 0 0
SMALL
GASTEIGER

@<TRIPOS>ATOM
      1 C          63.2774   86.7631   13.0240 C.ar    1  UNL1        0.0813
      2 C          62.4184   86.3945   11.8509 C.ar    1  UNL1        0.0365
      3 C          61.9997   87.4471   10.8678 C.ar    1  UNL1        0.0871
      4 C          62.4399   88.8684   11.0579 C.ar    1  UNL1        0.0989
      5 N          63.2989   89.2370   12.2310 N.ar    1  UNL1       -0.2906
      6 C          63.8829   90.5451   12.6757 C.ar    1  UNL1        0.0567
      7 C          63.7165   91.8656   11.9839 C.3     1  UNL1        0.0517
      8 C          64.6627   90.3009   13.9336 C.ar    1  UNL1        0.0730
      9 C          65.4128   91.3344   14.7207 C.3     1  UNL1        0.0534
     10 N          64.5605   88.8419   14.2664 N.ar    1  UNL1       -0.2299
     11 C          63.7177   88.1844   13.2140 C.ar    1  UNL1        0.1604
     12 N          61.1406   87.0785    9.6947 N.ar    1  UNL1       -0.2552
     13 C          59.7665   87.6643    9.5579 C.ar    1  UNL1        0.1851
     14 N          58.9075   87.2957    8.3848 N.ar    1  UNL1       -0.2234
     15 C          59.4225   86.3414    7.3484 C.ar    1  UNL1        0.1055
     16 C          60.7967   85.7557    7.4852 C.ar    1  UNL1        0.0818
     17 C          61.6557   86.1243    8.6584 C.ar    1  UNL1        0.2676
     18 O          63.0298   85.5385    8.7951 O.2     1  UNL1       -0.2665
     19 N          63.6962   85.7104   14.0071 N.pl3   1  UNL1       -0.3267
     20 H          63.5309   85.8413   14.9688 H       1  UNL1        0.1472
     21 C          64.3669   84.4583   13.5251 C.3     1  UNL1        0.1137
     22 C          64.5661   82.8865   10.9775 C.3     1  UNL1        0.0307
     23 C          63.6706   82.4122   12.0834 C.ar    1  UNL1       -0.0245
     24 C          62.8745   81.1519   11.9156 C.ar    1  UNL1       -0.0045
     25 C          61.9790   80.6775   13.0214 C.ar    1  UNL1       -0.0007
     26 C          61.8795   81.4634   14.2952 C.ar    1  UNL1       -0.0045
     27 C          62.6754   82.7236   14.4631 C.ar    1  UNL1       -0.0245
     28 C          62.5759   83.5095   15.7368 C.3     1  UNL1        0.0307
     29 C          63.5710   83.1980   13.3572 C.ar    1  UNL1       -0.0105
@<TRIPOS>BOND
     1    22    23    1
     2    23    24   ar
     3    24    25   ar
     4    25    26   ar
     5    26    27   ar
     6    27    28    1
     7    27    29   ar
     8    29    21    1
     9    21    19    1
    10    19     1    1
    11     1     2   ar
    12     2     3   ar
    13     3    12    1
    14    12    13   ar
    15    13    14   ar
    16    14    15   ar
    17    15    16   ar
    18    16    17   ar
    19    17    18    2
    20     3     4   ar
    21     4     5   ar
    22     5     6   ar
    23     6     7    1
    24     6     8   ar
    25     8     9    1
    26     8    10   ar
    27    10    11   ar
    28    29    23   ar
    29    11     1   ar
    30    17    12   ar
    31    11     5   ar
    32    19    20    1
@<TRIPOS>MOLECULE
*****
 29 32 0 0 0
SMALL
GASTEIGER

@<TRIPOS>ATOM
      1 C          63.2854   86.7519   13.0294 C.ar    1  UNL1        0.0813
      2 C          62.4284   86.3823   11.8551 C.ar    1  UNL1        0.0365
      3 C          62.0082   87.4349   10.8726 C.ar    1  UNL1        0.0871
      4 C          62.4449   88.8571   11.0643 C.ar    1  UNL1        0.0989
      5 N          63.3020   89.2266   12.2385 N.ar    1  UNL1       -0.2906
      6 C          63.8826   90.5356   12.6849 C.ar    1  UNL1        0.0567
      7 C          63.7137   91.8564   11.9942 C.3     1  UNL1        0.0517
      8 C          64.6617   90.2921   13.9434 C.ar    1  UNL1        0.0730
      9 C          65.4087   91.3266   14.7320 C.3     1  UNL1        0.0534
     10 N          64.5626   88.8326   14.2748 N.ar    1  UNL1       -0.2299
     11 C          63.7222   88.1740   13.2210 C.ar    1  UNL1        0.1604
     12 N          61.1511   87.0654    9.6983 N.ar    1  UNL1       -0.2552
     13 C          59.7730   87.6425    9.5644 C.ar    1  UNL1        0.1851
     14 N          58.9159   87.2730    8.3902 N.ar    1  UNL1       -0.2234
     15 C          59.4369   86.3264    7.3498 C.ar    1  UNL1        0.1055
     16 C          60.8149   85.7492    7.4836 C.ar    1  UNL1        0.0818
     17 C          61.6720   86.1188    8.6579 C.ar    1  UNL1        0.2676
     18 O          63.0501   85.5416    8.7918 O.2     1  UNL1       -0.2665
     19 N          63.7057   85.6993   14.0120 N.pl3   1  UNL1       -0.3267
     20 H          63.5452   85.8319   14.9742 H       1  UNL1        0.1472
     21 C          64.3707   84.4447   13.5285 C.3     1  UNL1        0.1137
     22 C          62.5832   83.5055   15.7472 C.3     1  UNL1        0.0307
     23 C          62.6765   82.7171   14.4746 C.ar    1  UNL1       -0.0245
     24 C          61.8760   81.4590   14.3112 C.ar    1  UNL1       -0.0045
     25 C          61.9694   80.6706   13.0386 C.ar    1  UNL1       -0.0007
     26 C          62.8631   81.1402   11.9293 C.ar    1  UNL1       -0.0045
     27 C          63.6636   82.3982   12.0925 C.ar    1  UNL1       -0.0245
     28 C          64.5573   82.8678   10.9832 C.3     1  UNL1        0.0307
     29 C          63.5703   83.1867   13.3652 C.ar    1  UNL1       -0.0105
@<TRIPOS>BOND
     1    22    23    1
     2    23    24   ar
     3    24    25   ar
     4    25    26   ar
     5    26    27   ar
     6    27    28    1
     7    27    29   ar
     8    29    21    1
     9    21    19    1
    10    19     1    1
    11     1     2   ar
    12     2     3   ar
    13     3    12    1
    14    12    13   ar
    15    13    14   ar
    16    14    15   ar
    17    15    16   ar
    18    16    17   ar
    19    17    18    2
    20     3     4   ar
    21     4     5   ar
    22     5     6   ar
    23     6     7    1
    24     6     8   ar
    25     8     9    1
    26     8    10   ar
    27    10    11   ar
    28    29    23   ar
    29    11     1   ar
    30    17    12   ar
    31    11     5   ar
    32    19    20    1
@<TRIPOS>MOLECULE
*****
 29 32 0 0 0
SMALL
GASTEIGER

@<TRIPOS>ATOM
      1 C          63.7029   87.0872   13.6862 C.ar    1  UNL1        0.0813
      2 C          64.4063   88.1883   14.4228 C.ar    1  UNL1        0.0365
      3 C          64.3402   89.5959   13.9088 C.ar    1  UNL1        0.0871
      4 C          63.5706   89.9024   12.6583 C.ar    1  UNL1        0.0989
      5 N          62.8672   88.8012   11.9217 N.ar    1  UNL1       -0.2906
      6 C          62.0380   88.7998   10.6718 C.ar    1  UNL1        0.0567
      7 C          61.7123   89.9968    9.8285 C.3     1  UNL1        0.0517
      8 C          61.5916   87.3913   10.4132 C.ar    1  UNL1        0.0730
      9 C          60.7411   86.9325    9.2659 C.3     1  UNL1        0.0534
     10 N          62.1449   86.5222   11.5034 N.ar    1  UNL1       -0.2299
     11 C          62.9333   87.3936   12.4357 C.ar    1  UNL1        0.1604
     12 N          65.0437   90.6972   14.6454 N.ar    1  UNL1       -0.2552
     13 C          66.3566   91.2179   14.1403 C.ar    1  UNL1        0.1851
     14 N          67.0600   92.3191   14.8769 N.ar    1  UNL1       -0.2234
     15 C          66.4506   92.8996   16.1185 C.ar    1  UNL1        0.1055
     16 C          65.1376   92.3789   16.6235 C.ar    1  UNL1        0.0818
     17 C          64.4342   91.2777   15.8870 C.ar    1  UNL1        0.2676
     18 O          63.1212   90.7570   16.3920 O.2     1  UNL1       -0.2665
     19 N          63.7690   85.6795   14.2001 N.pl3   1  UNL1       -0.3267
     20 H          63.4476   85.4709   15.1070 H       1  UNL1        0.1472
     21 C          64.3249   84.5896   13.3323 C.3     1  UNL1        0.1137
     22 C          62.7105   83.5319   15.6291 C.3     1  UNL1        0.0307
     23 C          62.7807   82.7615   14.3440 C.ar    1  UNL1       -0.0245
     24 C          62.0436   81.4622   14.2072 C.ar    1  UNL1       -0.0045
     25 C          62.1138   80.6918   12.9222 C.ar    1  UNL1       -0.0007
     26 C          62.9210   81.2206   11.7738 C.ar    1  UNL1       -0.0045
     27 C          63.6580   82.5198   11.9105 C.ar    1  UNL1       -0.0245
     28 C          64.4652   83.0487   10.7621 C.3     1  UNL1        0.0307
     29 C          63.5879   83.2903   13.1956 C.ar    1  UNL1       -0.0105
@<TRIPOS>BOND
     1    22    23    1
     2    23    24   ar
     3    24    25   ar
     4    25    26   ar
     5    26    27   ar
     6    27    28    1
     7    27    29   ar
     8    29    21    1
     9    21    19    1
    10    19     1    1
    11     1     2   ar
    12     2     3   ar
    13     3    12    1
    14    12    13   ar
    15    13    14   ar
    16    14    15   ar
    17    15    16   ar
    18    16    17   ar
    19    17    18    2
    20     3     4   ar
    21     4     5   ar
    22     5     6   ar
    23     6     7    1
    24     6     8   ar
    25     8     9    1
    26     8    10   ar
    27    10    11   ar
    28    29    23   ar
    29    11     1   ar
    30    17    12   ar
    31    11     5   ar
    32    19    20    1
@<TRIPOS>MOLECULE
*****
 29 32 0 0 0
SMALL
GASTEIGER

@<TRIPOS>ATOM
      1 C          63.7390   87.0839   13.7058 C.ar    1  UNL1        0.0813
      2 C          64.4339   88.1921   14.4399 C.ar    1  UNL1        0.0365
      3 C          64.3594   89.5976   13.9211 C.ar    1  UNL1        0.0871
      4 C          63.5900   89.8948   12.6682 C.ar    1  UNL1        0.0989
      5 N          62.8951   88.7866   11.9341 N.ar    1  UNL1       -0.2906
      6 C          62.0681   88.7756   10.6828 C.ar    1  UNL1        0.0567
      7 C          61.7361   89.9675    9.8349 C.3     1  UNL1        0.0517
      8 C          61.6314   87.3633   10.4282 C.ar    1  UNL1        0.0730
      9 C          60.7860   86.8951    9.2810 C.3     1  UNL1        0.0534
     10 N          62.1885   86.5015   11.5222 N.ar    1  UNL1       -0.2299
     11 C          62.9696   87.3812   12.4529 C.ar    1  UNL1        0.1604
     12 N          65.0544   90.7059   14.6552 N.ar    1  UNL1       -0.2552
     13 C          66.3734   91.2214   14.1608 C.ar    1  UNL1        0.1851
     14 N          67.0683   92.3296   14.8948 N.ar    1  UNL1       -0.2234
     15 C          66.4442   92.9224   16.1234 C.ar    1  UNL1        0.1055
     16 C          65.1252   92.4069   16.6178 C.ar    1  UNL1        0.0818
     17 C          64.4303   91.2986   15.8837 C.ar    1  UNL1        0.2676
     18 O          63.1113   90.7830   16.3781 O.2     1  UNL1       -0.2665
     19 N          63.8134   85.6784   14.2246 N.pl3   1  UNL1       -0.3267
     20 H          63.5082   85.4740   15.1380 H       1  UNL1        0.1472
     21 C          64.3528   84.5844   13.3516 C.3     1  UNL1        0.1137
     22 C          64.4185   83.0739   10.7605 C.3     1  UNL1        0.0307
     23 C          63.6344   82.5379   11.9214 C.ar    1  UNL1       -0.0245
     24 C          62.8831   81.2465   11.7868 C.ar    1  UNL1       -0.0045
     25 C          62.0990   80.7105   12.9478 C.ar    1  UNL1       -0.0007
     26 C          62.0662   81.4657   14.2434 C.ar    1  UNL1       -0.0045
     27 C          62.8175   82.7570   14.3780 C.ar    1  UNL1       -0.0245
     28 C          62.7846   83.5122   15.6736 C.3     1  UNL1        0.0307
     29 C          63.6016   83.2931   13.2170 C.ar    1  UNL1       -0.0105
@<TRIPOS>BOND
     1    22    23    1
     2    23    24   ar
     3    24    25   ar
     4    25    26   ar
     5    26    27   ar
     6    27    28    1
     7    27    29   ar
     8    29    21    1
     9    21    19    1
    10    19     1    1
    11     1     2   ar
    12     2     3   ar
    13     3    12    1
    14    12    13   ar
    15    13    14   ar
    16    14    15   ar
    17    15    16   ar
    18    16    17   ar
    19    17    18    2
    20     3     4   ar
    21     4     5   ar
    22     5     6   ar
    23     6     7    1
    24     6     8   ar
    25     8     9    1
    26     8    10   ar
    27    10    11   ar
    28    29    23   ar
    29    11     1   ar
    30    17    12   ar
    31    11     5   ar
    32    19    20    1
@<TRIPOS>MOLECULE
*****
 29 32 0 0 0
SMALL
GASTEIGER

@<TRIPOS>ATOM
      1 C          62.1283   88.4460   11.3946 C.ar    1  UNL1        0.0813
      2 C          62.6527   87.2180   12.0780 C.ar    1  UNL1        0.0365
      3 C          62.3637   85.8611   11.5077 C.ar    1  UNL1        0.0871
      4 C          61.5504   85.7322   10.2539 C.ar    1  UNL1        0.0989
      5 N          61.0260   86.9602    9.5705 N.ar    1  UNL1       -0.2906
      6 C          60.2022   87.1444    8.3306 C.ar    1  UNL1        0.0567
      7 C          59.6888   86.0500    7.4426 C.3     1  UNL1        0.0517
      8 C          59.9821   88.6152    8.1346 C.ar    1  UNL1        0.0730
      9 C          59.2097   89.2497    7.0161 C.3     1  UNL1        0.0534
     10 N          60.6698   89.3399    9.2534 N.ar    1  UNL1       -0.2299
     11 C          61.3150   88.3170   10.1408 C.ar    1  UNL1        0.1604
     12 N          62.8881   84.6330   12.1911 N.ar    1  UNL1       -0.2552
     13 C          62.6569   84.4357   13.6600 C.ar    1  UNL1        0.1851
     14 N          63.1812   83.2077   14.3434 N.ar    1  UNL1       -0.2234
     15 C          63.9367   82.1770   13.5579 C.ar    1  UNL1        0.1055
     16 C          64.1679   82.3744   12.0891 C.ar    1  UNL1        0.0818
     17 C          63.6436   83.6024   11.4056 C.ar    1  UNL1        0.2676
     18 O          63.8748   83.7998    9.9368 O.2     1  UNL1       -0.2665
     19 N          62.4173   89.8029   11.9649 N.pl3   1  UNL1       -0.3267
     20 H          61.7751   90.5379   11.8362 H       1  UNL1        0.1472
     21 C          63.6848   90.0400   12.7313 C.3     1  UNL1        0.1137
     22 C          65.5074   91.1263   14.8521 C.3     1  UNL1        0.0307
     23 C          65.4207   91.8058   13.5176 C.ar    1  UNL1       -0.0245
     24 C          66.2454   93.0284   13.2435 C.ar    1  UNL1       -0.0045
     25 C          66.1587   93.7079   11.9091 C.ar    1  UNL1       -0.0007
     26 C          65.2474   93.1647   10.8487 C.ar    1  UNL1       -0.0045
     27 C          64.4228   91.9421   11.1227 C.ar    1  UNL1       -0.0245
     28 C          63.5114   91.3989   10.0623 C.3     1  UNL1        0.0307
     29 C          64.5094   91.2626   12.4572 C.ar    1  UNL1       -0.0105
@<TRIPOS>BOND
     1    22    23    1
     2    23    24   ar
     3    24    25   ar
     4    25    26   ar
     5    26    27   ar
     6    27    28    1
     7    27    29   ar
     8    29    21    1
     9    21    19    1
    10    19     1    1
    11     1     2   ar
    12     2     3   ar
    13     3    12    1
    14    12    13   ar
    15    13    14   ar
    16    14    15   ar
    17    15    16   ar
    18    16    17   ar
    19    17    18    2
    20     3     4   ar
    21     4     5   ar
    22     5     6   ar
    23     6     7    1
    24     6     8   ar
    25     8     9    1
    26     8    10   ar
    27    10    11   ar
    28    29    23   ar
    29    11     1   ar
    30    17    12   ar
    31    11     5   ar
    32    19    20    1
@<TRIPOS>MOLECULE
*****
 29 32 0 0 0
SMALL
GASTEIGER

@<TRIPOS>ATOM
      1 C          62.1344   88.4447   11.3944 C.ar    1  UNL1        0.0813
      2 C          62.6585   87.2162   12.0770 C.ar    1  UNL1        0.0365
      3 C          62.3688   85.8597   11.5062 C.ar    1  UNL1        0.0871
      4 C          61.5551   85.7317   10.2526 C.ar    1  UNL1        0.0989
      5 N          61.0309   86.9602    9.5700 N.ar    1  UNL1       -0.2906
      6 C          60.2068   87.1453    8.3304 C.ar    1  UNL1        0.0567
      7 C          59.6926   86.0515    7.4420 C.3     1  UNL1        0.0517
      8 C          59.9871   88.6163    8.1352 C.ar    1  UNL1        0.0730
      9 C          59.2147   89.2517    7.0173 C.3     1  UNL1        0.0534
     10 N          60.6755   89.3403    9.2541 N.ar    1  UNL1       -0.2299
     11 C          61.3206   88.3167   10.1408 C.ar    1  UNL1        0.1604
     12 N          62.8930   84.6311   12.1888 N.ar    1  UNL1       -0.2552
     13 C          62.6593   84.4316   13.6570 C.ar    1  UNL1        0.1851
     14 N          63.1834   83.2031   14.3397 N.ar    1  UNL1       -0.2234
     15 C          63.9412   82.1740   13.5542 C.ar    1  UNL1        0.1055
     16 C          64.1748   82.3736   12.0860 C.ar    1  UNL1        0.0818
     17 C          63.6507   83.6022   11.4033 C.ar    1  UNL1        0.2676
     18 O          63.8843   83.8018    9.9351 O.2     1  UNL1       -0.2665
     19 N          62.4241   89.8013   11.9652 N.pl3   1  UNL1       -0.3267
     20 H          61.7809   90.5359   11.8394 H       1  UNL1        0.1472
     21 C          63.6938   90.0385   12.7279 C.3     1  UNL1        0.1137
     22 C          63.5221   91.3957   10.0579 C.3     1  UNL1        0.0307
     23 C          64.4286   91.9427   11.1204 C.ar    1  UNL1       -0.0245
     24 C          65.2494   93.1684   10.8479 C.ar    1  UNL1       -0.0045
     25 C          66.1560   93.7154   11.9103 C.ar    1  UNL1       -0.0007
     26 C          66.2419   93.0368   13.2453 C.ar    1  UNL1       -0.0045
     27 C          65.4211   91.8112   13.5178 C.ar    1  UNL1       -0.0245
     28 C          65.5070   91.1326   14.8528 C.3     1  UNL1        0.0307
     29 C          64.5145   91.2641   12.4553 C.ar    1  UNL1       -0.0105
@<TRIPOS>BOND
     1    22    23    1
     2    23    24   ar
     3    24    25   ar
     4    25    26   ar
     5    26    27   ar
     6    27    28    1
     7    27    29   ar
     8    29    21    1
     9    21    19    1
    10    19     1    1
    11     1     2   ar
    12     2     3   ar
    13     3    12    1
    14    12    13   ar
    15    13    14   ar
    16    14    15   ar
    17    15    16   ar
    18    16    17   ar
    19    17    18    2
    20     3     4   ar
    21     4     5   ar
    22     5     6   ar
    23     6     7    1
    24     6     8   ar
    25     8     9    1
    26     8    10   ar
    27    10    11   ar
    28    29    23   ar
    29    11     1   ar
    30    17    12   ar
    31    11     5   ar
    32    19    20    1
@<TRIPOS>MOLECULE
*****
 29 32 0 0 0
SMALL
GASTEIGER

@<TRIPOS>ATOM
      1 C          63.1136   87.8091   12.5102 C.ar    1  UNL1        0.0813
      2 C          62.2792   88.0992   11.2980 C.ar    1  UNL1        0.0365
      3 C          61.6050   86.9772   10.5655 C.ar    1  UNL1        0.0871
      4 C          61.7653   85.5651   11.0452 C.ar    1  UNL1        0.0989
      5 N          62.5997   85.2749   12.2574 N.ar    1  UNL1       -0.2906
      6 C          62.9376   83.9935   12.9601 C.ar    1  UNL1        0.0567
      7 C          62.4739   82.6227   12.5653 C.3     1  UNL1        0.0517
      8 C          63.8206   84.3236   14.1270 C.ar    1  UNL1        0.0730
      9 C          64.3949   83.3407   15.1038 C.3     1  UNL1        0.0534
     10 N          64.0285   85.8090   14.1454 N.ar    1  UNL1       -0.2299
     11 C          63.2739   86.3969   12.9899 C.ar    1  UNL1        0.1604
     12 N          60.7706   87.2674    9.3532 N.ar    1  UNL1       -0.2552
     13 C          60.4343   86.1652    8.3930 C.ar    1  UNL1        0.1851
     14 N          59.5998   86.4553    7.1807 N.ar    1  UNL1       -0.2234
     15 C          59.1016   87.8476    6.9287 C.ar    1  UNL1        0.1055
     16 C          59.4379   88.9497    7.8890 C.ar    1  UNL1        0.0818
     17 C          60.2724   88.6596    9.1013 C.ar    1  UNL1        0.2676
     18 O          60.6087   89.7618   10.0616 O.2     1  UNL1       -0.2665
     19 N          63.7878   88.9311   13.2428 N.pl3   1  UNL1       -0.3267
     20 H          64.5021   88.7364   13.8917 H       1  UNL1        0.1472
     21 C          63.3736   90.3499   12.9867 C.3     1  UNL1        0.1137
     22 C          63.3858   91.3636   10.1632 C.3     1  UNL1        0.0307
     23 C          64.3993   91.8700   11.1462 C.ar    1  UNL1       -0.0245
     24 C          65.4189   92.8832   10.7175 C.ar    1  UNL1       -0.0045
     25 C          66.4324   93.3896   11.7006 C.ar    1  UNL1       -0.0007
     26 C          66.4263   92.8827   13.1123 C.ar    1  UNL1       -0.0045
     27 C          65.4067   91.8695   13.5410 C.ar    1  UNL1       -0.0245
     28 C          65.4007   91.3626   14.9528 C.3     1  UNL1        0.0307
     29 C          64.3932   91.3631   12.5580 C.ar    1  UNL1       -0.0105
@<TRIPOS>BOND
     1    22    23    1
     2    23    24   ar
     3    24    25   ar
     4    25    26   ar
     5    26    27   ar
     6    27    28    1
     7    27    29   ar
     8    29    21    1
     9    21    19    1
    10    19     1    1
    11     1     2   ar
    12     2     3   ar
    13     3    12    1
    14    12    13   ar
    15    13    14   ar
    16    14    15   ar
    17    15    16   ar
    18    16    17   ar
    19    17    18    2
    20     3     4   ar
    21     4     5   ar
    22     5     6   ar
    23     6     7    1
    24     6     8   ar
    25     8     9    1
    26     8    10   ar
    27    10    11   ar
    28    29    23   ar
    29    11     1   ar
    30    17    12   ar
    31    11     5   ar
    32    19    20    1
@<TRIPOS>MOLECULE
*****
 29 32 0 0 0
SMALL
GASTEIGER

@<TRIPOS>ATOM
      1 C          63.1172   87.7989   12.5066 C.ar    1  UNL1        0.0813
      2 C          62.2837   88.0879   11.2935 C.ar    1  UNL1        0.0365
      3 C          61.6103   86.9652   10.5614 C.ar    1  UNL1        0.0871
      4 C          61.7705   85.5534   11.0425 C.ar    1  UNL1        0.0989
      5 N          62.6040   85.2645   12.2556 N.ar    1  UNL1       -0.2906
      6 C          62.9415   83.9837   12.9597 C.ar    1  UNL1        0.0567
      7 C          62.4784   82.6125   12.5656 C.3     1  UNL1        0.0517
      8 C          63.8235   84.3149   14.1269 C.ar    1  UNL1        0.0730
      9 C          64.3972   83.3329   15.1051 C.3     1  UNL1        0.0534
     10 N          64.0311   85.8003   14.1443 N.ar    1  UNL1       -0.2299
     11 C          63.2773   86.3872   12.9877 C.ar    1  UNL1        0.1604
     12 N          60.7768   87.2541    9.3482 N.ar    1  UNL1       -0.2552
     13 C          60.4386   86.1504    8.3904 C.ar    1  UNL1        0.1851
     14 N          59.6051   86.4393    7.1773 N.ar    1  UNL1       -0.2234
     15 C          59.1097   87.8319    6.9219 C.ar    1  UNL1        0.1055
     16 C          59.4480   88.9357    7.8796 C.ar    1  UNL1        0.0818
     17 C          60.2815   88.6467    9.0929 C.ar    1  UNL1        0.2676
     18 O          60.6198   89.7505   10.0506 O.2     1  UNL1       -0.2665
     19 N          63.7906   88.9217   13.2388 N.pl3   1  UNL1       -0.3267
     20 H          64.5075   88.7279   13.8851 H       1  UNL1        0.1472
     21 C          63.3717   90.3397   12.9861 C.3     1  UNL1        0.1137
     22 C          65.4016   91.3539   14.9486 C.3     1  UNL1        0.0307
     23 C          65.4022   91.8637   13.5379 C.ar    1  UNL1       -0.0245
     24 C          66.4178   92.8806   13.1083 C.ar    1  UNL1       -0.0045
     25 C          66.4185   93.3904   11.6977 C.ar    1  UNL1       -0.0007
     26 C          65.4036   92.8833   10.7164 C.ar    1  UNL1       -0.0045
     27 C          64.3880   91.8664   11.1459 C.ar    1  UNL1       -0.0245
     28 C          63.3730   91.3593   10.1647 C.3     1  UNL1        0.0307
     29 C          64.3873   91.3566   12.5567 C.ar    1  UNL1       -0.0105
@<TRIPOS>BOND
     1    22    23    1
     2    23    24   ar
     3    24    25   ar
     4    25    26   ar
     5    26    27   ar
     6    27    28    1
     7    27    29   ar
     8    29    21    1
     9    21    19    1
    10    19     1    1
    11     1     2   ar
    12     2     3   ar
    13     3    12    1
    14    12    13   ar
    15    13    14   ar
    16    14    15   ar
    17    15    16   ar
    18    16    17   ar
    19    17    18    2
    20     3     4   ar
    21     4     5   ar
    22     5     6   ar
    23     6     7    1
    24     6     8   ar
    25     8     9    1
    26     8    10   ar
    27    10    11   ar
    28    29    23   ar
    29    11     1   ar
    30    17    12   ar
    31    11     5   ar
    32    19    20    1
@<TRIPOS>MOLECULE
*****
 29 32 0 0 0
SMALL
GASTEIGER

@<TRIPOS>ATOM
      1 C          62.3023   87.0041   11.9772 C.ar    1  UNL1        0.0813
      2 C          63.1781   88.0926   12.5232 C.ar    1  UNL1        0.0365
      3 C          63.1960   89.4411   11.8666 C.ar    1  UNL1        0.0871
      4 C          62.3382   89.7011   10.6639 C.ar    1  UNL1        0.0989
      5 N          61.4624   88.6126   10.1178 N.ar    1  UNL1       -0.2906
      6 C          60.5160   88.5744    8.9547 C.ar    1  UNL1        0.0567
      7 C          60.2237   89.7091    8.0182 C.3     1  UNL1        0.0517
      8 C          59.9131   87.2023    8.8926 C.ar    1  UNL1        0.0730
      9 C          58.9121   86.7240    7.8829 C.3     1  UNL1        0.0534
     10 N          60.4869   86.3925   10.0172 N.ar    1  UNL1       -0.2299
     11 C          61.4444   87.2642   10.7745 C.ar    1  UNL1        0.1604
     12 N          64.0719   90.5296   12.4126 N.ar    1  UNL1       -0.2552
     13 C          64.4332   91.7040   11.5521 C.ar    1  UNL1        0.1851
     14 N          65.3090   92.7925   12.0981 N.ar    1  UNL1       -0.2234
     15 C          65.8235   92.7067   13.5045 C.ar    1  UNL1        0.1055
     16 C          65.4622   91.5323   14.3650 C.ar    1  UNL1        0.0818
     17 C          64.5863   90.4438   13.8189 C.ar    1  UNL1        0.2676
     18 O          64.2250   89.2694   14.6794 O.2     1  UNL1       -0.2665
     19 N          62.2843   85.6556   12.6339 N.pl3   1  UNL1       -0.3267
     20 H          61.5047   85.3781   13.1672 H       1  UNL1        0.1472
     21 C          63.4542   84.7298   12.4779 C.3     1  UNL1        0.1137
     22 C          63.9118   83.3322    9.8630 C.3     1  UNL1        0.0307
     23 C          63.4595   82.5518   11.0615 C.ar    1  UNL1       -0.0245
     24 C          63.2360   81.0725   10.9525 C.ar    1  UNL1       -0.0045
     25 C          62.7838   80.2921   12.1510 C.ar    1  UNL1       -0.0007
     26 C          62.5550   80.9908   13.4584 C.ar    1  UNL1       -0.0045
     27 C          62.7785   82.4700   13.5674 C.ar    1  UNL1       -0.0245
     28 C          62.5497   83.1688   14.8748 C.3     1  UNL1        0.0307
     29 C          63.2307   83.2506   12.3689 C.ar    1  UNL1       -0.0105
@<TRIPOS>BOND
     1    22    23    1
     2    23    24   ar
     3    24    25   ar
     4    25    26   ar
     5    26    27   ar
     6    27    28    1
     7    27    29   ar
     8    29    21    1
     9    21    19    1
    10    19     1    1
    11     1     2   ar
    12     2     3   ar
    13     3    12    1
    14    12    13   ar
    15    13    14   ar
    16    14    15   ar
    17    15    16   ar
    18    16    17   ar
    19    17    18    2
    20     3     4   ar
    21     4     5   ar
    22     5     6   ar
    23     6     7    1
    24     6     8   ar
    25     8     9    1
    26     8    10   ar
    27    10    11   ar
    28    29    23   ar
    29    11     1   ar
    30    17    12   ar
    31    11     5   ar
    32    19    20    1
