@<TRIPOS>MOLECULE
*****
 24 28 0 0 0
SMALL
GASTEIGER

@<TRIPOS>ATOM
      1 O          62.9064   86.0057    8.8250 O.2     1  UNL1       -0.2701
      2 C          62.4007   85.5618   10.1655 C.2     1  UNL1        0.2474
      3 N          61.1896   86.2139   10.7639 N.am    1  UNL1       -0.3011
      4 H          60.7829   85.9941   11.6331 H       1  UNL1        0.1497
      5 C          63.1061   84.4656   10.9079 C.ar    1  UNL1        0.0741
      6 C          63.6036   83.2589   10.1688 C.ar    1  UNL1        0.0062
      7 C          64.3090   82.1629   10.9111 C.ar    1  UNL1        0.0034
      8 C          64.5168   82.2735   12.3925 C.ar    1  UNL1        0.0391
      9 C          64.0193   83.4802   13.1316 C.ar    1  UNL1        0.1645
     10 O          64.0782   83.8649   14.5802 O.2     1  UNL1       -0.4384
     11 C          63.4092   85.1987   14.7332 C.ar    1  UNL1        0.2052
     12 N          62.9369   85.6384   13.3791 N.ar    1  UNL1       -0.2119
     13 C          63.3140   84.5763   12.3893 C.ar    1  UNL1        0.1228
     14 C          63.2420   85.9593   16.0153 C.3     1  UNL1        0.0766
     15 C          63.2886   87.2523   16.7742 C.3     1  UNL1        0.0097
     16 C          62.9057   85.9836   17.4769 C.3     1  UNL1        0.0097
     17 C          60.3303   88.0814    9.0493 C.3     1  UNL1        0.0878
     18 C          59.6739   87.4521    8.0428 C.3     1  UNL1        0.0919
     19 N          59.2671   87.1154    7.4111 N.3     1  UNL1       -0.2713
     20 C          59.3946   88.6100    7.4043 C.3     1  UNL1        0.0722
     21 C          60.1204   89.3058    8.5174 C.3     1  UNL1        0.0191
     22 C          60.7188   88.5072    9.6372 C.3     1  UNL1        0.0221
     23 C          60.5913   87.0126    9.6440 C.3     1  UNL1        0.0191
     24 C          59.8655   86.3167    8.5310 C.3     1  UNL1        0.0722
@<TRIPOS>BOND
     1     1     2    2
     2     2     3   am
     3    17     3    1
     4    17    18    1
     5    18    19    1
     6    19    20    1
     7    20    21    1
     8    21    22    1
     9    22    23    1
    10    23    24    1
    11     2     5    1
    12     5     6   ar
    13     6     7   ar
    14     7     8   ar
    15     8     9   ar
    16     9    10   ar
    17    10    11   ar
    18    11    14    1
    19    14    15    1
    20    15    16    1
    21    11    12   ar
    22    12    13   ar
    23    22    17    1
    24    13     5   ar
    25    24    19    1
    26    13     9   ar
    27    16    14    1
    28     3     4    1
@<TRIPOS>MOLECULE
*****
 24 28 0 0 0
SMALL
GASTEIGER

@<TRIPOS>ATOM
      1 O          62.9249   90.7626   12.1414 O.2     1  UNL1       -0.2701
      2 C          63.0732   89.2802   12.3157 C.2     1  UNL1        0.2474
      3 N          63.8705   88.7361   13.4639 N.am    1  UNL1       -0.3011
      4 H          64.0251   87.7844   13.6626 H       1  UNL1        0.1497
      5 C          62.4242   88.3419   11.3419 C.ar    1  UNL1        0.0741
      6 C          61.7324   88.8832   10.1260 C.ar    1  UNL1        0.0062
      7 C          61.0835   87.9448    9.1523 C.ar    1  UNL1        0.0034
      8 C          61.1263   86.4651    9.3943 C.ar    1  UNL1        0.0391
      9 C          61.8181   85.9238   10.6102 C.ar    1  UNL1        0.1645
     10 O          62.0209   84.5241   11.1099 O.2     1  UNL1       -0.4384
     11 C          62.7952   84.5974   12.3925 C.ar    1  UNL1        0.2052
     12 N          63.0710   86.0424   12.6855 N.ar    1  UNL1       -0.2119
     13 C          62.4670   86.8621   11.5840 C.ar    1  UNL1        0.1228
     14 C          63.2194   83.4305   13.2342 C.3     1  UNL1        0.0766
     15 C          63.5426   82.8473   14.5779 C.3     1  UNL1        0.0097
     16 C          63.6308   81.9925   13.3485 C.3     1  UNL1        0.0097
     17 C          64.7983   90.8118   14.8769 C.3     1  UNL1        0.0878
     18 C          63.9748   90.9937   15.9393 C.3     1  UNL1        0.0919
     19 N          63.5041   91.1429   16.5982 N.3     1  UNL1       -0.2713
     20 C          64.6869   92.0444   16.4030 C.3     1  UNL1        0.0722
     21 C          65.5976   91.8432   15.2282 C.3     1  UNL1        0.0191
     22 C          65.3255   90.7405   14.2485 C.3     1  UNL1        0.0221
     23 C          64.1426   89.8389   14.4436 C.3     1  UNL1        0.0191
     24 C          63.2319   90.0400   15.6184 C.3     1  UNL1        0.0722
@<TRIPOS>BOND
     1     1     2    2
     2     2     3   am
     3    17     3    1
     4    17    18    1
     5    18    19    1
     6    19    20    1
     7    20    21    1
     8    21    22    1
     9    22    23    1
    10    23    24    1
    11     2     5    1
    12     5     6   ar
    13     6     7   ar
    14     7     8   ar
    15     8     9   ar
    16     9    10   ar
    17    10    11   ar
    18    11    14    1
    19    14    15    1
    20    15    16    1
    21    11    12   ar
    22    12    13   ar
    23    22    17    1
    24    13     5   ar
    25    24    19    1
    26    13     9   ar
    27    16    14    1
    28     3     4    1
@<TRIPOS>MOLECULE
*****
 24 28 0 0 0
SMALL
GASTEIGER

@<TRIPOS>ATOM
      1 O          62.3999   85.5045    9.5314 O.2     1  UNL1       -0.2701
      2 C          61.9835   85.8886   10.9202 C.2     1  UNL1        0.2474
      3 N          60.7942   86.7788   11.1275 N.am    1  UNL1       -0.3011
      4 H          60.4439   87.0853   11.9950 H       1  UNL1        0.1497
      5 C          62.7565   85.3825   12.1020 C.ar    1  UNL1        0.0741
      6 C          62.8773   83.9069   12.3431 C.ar    1  UNL1        0.0062
      7 C          63.6502   83.4009   13.5248 C.ar    1  UNL1        0.0034
      8 C          64.3024   84.3704   14.4653 C.ar    1  UNL1        0.0391
      9 C          64.1817   85.8459   14.2242 C.ar    1  UNL1        0.1645
     10 O          64.7123   87.0321   14.9734 O.2     1  UNL1       -0.4384
     11 C          64.2674   88.2713   14.2548 C.ar    1  UNL1        0.2052
     12 N          63.4617   87.8510   13.0614 N.ar    1  UNL1       -0.2119
     13 C          63.4087   86.3520   13.0426 C.ar    1  UNL1        0.1228
     14 C          64.5742   89.6830   14.6586 C.3     1  UNL1        0.0766
     15 C          65.4389   90.9044   14.5570 C.3     1  UNL1        0.0097
     16 C          64.2410   90.9066   15.4598 C.3     1  UNL1        0.0097
     17 C          59.7929   87.3861    8.7204 C.3     1  UNL1        0.0878
     18 C          59.9924   88.7109    8.5086 C.3     1  UNL1        0.0919
     19 N          60.0910   89.5097    8.3351 N.3     1  UNL1       -0.2713
     20 C          59.4085   88.6776    7.2903 C.3     1  UNL1        0.0722
     21 C          59.1879   87.2125    7.5245 C.3     1  UNL1        0.0191
     22 C          59.6497   86.5796    8.8035 C.3     1  UNL1        0.0221
     23 C          60.3323   87.4117    9.8484 C.3     1  UNL1        0.0191
     24 C          60.5529   88.8768    9.6142 C.3     1  UNL1        0.0722
@<TRIPOS>BOND
     1     1     2    2
     2     2     3   am
     3    17     3    1
     4    17    18    1
     5    18    19    1
     6    19    20    1
     7    20    21    1
     8    21    22    1
     9    22    23    1
    10    23    24    1
    11     2     5    1
    12     5     6   ar
    13     6     7   ar
    14     7     8   ar
    15     8     9   ar
    16     9    10   ar
    17    10    11   ar
    18    11    14    1
    19    14    15    1
    20    15    16    1
    21    11    12   ar
    22    12    13   ar
    23    22    17    1
    24    13     5   ar
    25    24    19    1
    26    13     9   ar
    27    16    14    1
    28     3     4    1
@<TRIPOS>MOLECULE
*****
 24 28 0 0 0
SMALL
GASTEIGER

@<TRIPOS>ATOM
      1 O          63.6270   88.9172   13.1178 O.2     1  UNL1       -0.2701
      2 C          63.8033   90.3249   12.6308 C.2     1  UNL1        0.2474
      3 N          63.0960   90.7833   11.3899 N.am    1  UNL1       -0.3011
      4 H          63.1475   91.6825   10.9923 H       1  UNL1        0.1497
      5 C          64.6869   91.2742   13.3846 C.ar    1  UNL1        0.0741
      6 C          64.8323   91.1431   14.8717 C.ar    1  UNL1        0.0062
      7 C          65.7158   92.0924   15.6254 C.ar    1  UNL1        0.0034
      8 C          66.4539   93.1728   14.8920 C.ar    1  UNL1        0.0391
      9 C          66.3085   93.3039   13.4048 C.ar    1  UNL1        0.1645
     10 O          66.9070   94.2625   12.4184 O.2     1  UNL1       -0.4384
     11 C          66.3933   93.9056   11.0550 C.ar    1  UNL1        0.2052
     12 N          65.4774   92.7265   11.1988 N.ar    1  UNL1       -0.2119
     13 C          65.4250   92.3546   12.6511 C.ar    1  UNL1        0.1228
     14 C          66.7355   94.6051    9.7730 C.3     1  UNL1        0.0766
     15 C          67.4510   94.6246    8.4547 C.3     1  UNL1        0.0097
     16 C          66.6128   95.7970    8.8706 C.3     1  UNL1        0.0097
     17 C          61.6693   88.7233   10.4486 C.3     1  UNL1        0.0878
     18 C          60.5062   88.6698   11.1444 C.3     1  UNL1        0.0919
     19 N          59.7872   88.5971   11.5389 N.3     1  UNL1       -0.2713
     20 C          60.0621   87.5929   10.4592 C.3     1  UNL1        0.0722
     21 C          61.3484   87.6521    9.6898 C.3     1  UNL1        0.0191
     22 C          62.3597   88.7155   10.0000 C.3     1  UNL1        0.0221
     23 C          62.0847   89.7199   11.0797 C.3     1  UNL1        0.0191
     24 C          60.7985   89.6607   11.8492 C.3     1  UNL1        0.0722
@<TRIPOS>BOND
     1     1     2    2
     2     2     3   am
     3    17     3    1
     4    17    18    1
     5    18    19    1
     6    19    20    1
     7    20    21    1
     8    21    22    1
     9    22    23    1
    10    23    24    1
    11     2     5    1
    12     5     6   ar
    13     6     7   ar
    14     7     8   ar
    15     8     9   ar
    16     9    10   ar
    17    10    11   ar
    18    11    14    1
    19    14    15    1
    20    15    16    1
    21    11    12   ar
    22    12    13   ar
    23    22    17    1
    24    13     5   ar
    25    24    19    1
    26    13     9   ar
    27    16    14    1
    28     3     4    1
@<TRIPOS>MOLECULE
*****
 24 28 0 0 0
SMALL
GASTEIGER

@<TRIPOS>ATOM
      1 O          61.6818   89.6785   12.6859 O.2     1  UNL1       -0.2701
      2 C          62.9096   90.3036   12.0928 C.2     1  UNL1        0.2474
      3 N          63.1257   90.2709   10.6088 N.am    1  UNL1       -0.3011
      4 H          63.8952   90.6513   10.1267 H       1  UNL1        0.1497
      5 C          63.9214   90.9613   12.9837 C.ar    1  UNL1        0.0741
      6 C          63.9350   90.6604   14.4531 C.ar    1  UNL1        0.0062
      7 C          64.9468   91.3182   15.3440 C.ar    1  UNL1        0.0034
      8 C          65.9449   92.2768   14.7654 C.ar    1  UNL1        0.0391
      9 C          65.9312   92.5777   13.2960 C.ar    1  UNL1        0.1645
     10 O          66.7844   93.4726   12.4468 O.2     1  UNL1       -0.4384
     11 C          66.3000   93.3679   11.0310 C.ar    1  UNL1        0.2052
     12 N          65.1474   92.4084   11.0053 N.ar    1  UNL1       -0.2119
     13 C          64.9195   91.9200   12.4052 C.ar    1  UNL1        0.1228
     14 C          66.8684   94.0952    9.8486 C.3     1  UNL1        0.0766
     15 C          66.8605   95.2752    8.9226 C.3     1  UNL1        0.0097
     16 C          67.8608   94.1748    8.7266 C.3     1  UNL1        0.0097
     17 C          61.0480   88.9951    9.5037 C.3     1  UNL1        0.0878
     18 C          61.3150   87.6655    9.5280 C.3     1  UNL1        0.0919
     19 N          61.4324   86.8506    9.5206 N.3     1  UNL1       -0.2713
     20 C          60.1429   87.3460    8.9361 C.3     1  UNL1        0.0722
     21 C          59.8476   88.8165    8.9092 C.3     1  UNL1        0.0191
     22 C          60.8418   89.7914    9.4667 C.3     1  UNL1        0.0221
     23 C          62.1314   89.2960   10.0512 C.3     1  UNL1        0.0191
     24 C          62.4267   87.8256   10.0782 C.3     1  UNL1        0.0722
@<TRIPOS>BOND
     1     1     2    2
     2     2     3   am
     3    17     3    1
     4    17    18    1
     5    18    19    1
     6    19    20    1
     7    20    21    1
     8    21    22    1
     9    22    23    1
    10    23    24    1
    11     2     5    1
    12     5     6   ar
    13     6     7   ar
    14     7     8   ar
    15     8     9   ar
    16     9    10   ar
    17    10    11   ar
    18    11    14    1
    19    14    15    1
    20    15    16    1
    21    11    12   ar
    22    12    13   ar
    23    22    17    1
    24    13     5   ar
    25    24    19    1
    26    13     9   ar
    27    16    14    1
    28     3     4    1
@<TRIPOS>MOLECULE
*****
 24 28 0 0 0
SMALL
GASTEIGER

@<TRIPOS>ATOM
      1 O          62.0026   84.6865   10.5429 O.2     1  UNL1       -0.2701
      2 C          62.3420   85.8842   11.3798 C.2     1  UNL1        0.2474
      3 N          63.1354   85.7170   12.6417 N.am    1  UNL1       -0.3011
      4 H          63.4068   86.4374   13.2554 H       1  UNL1        0.1497
      5 C          61.8879   87.2492   10.9546 C.ar    1  UNL1        0.0741
      6 C          60.8549   87.3941    9.8768 C.ar    1  UNL1        0.0062
      7 C          60.4009   88.7591    9.4517 C.ar    1  UNL1        0.0034
      8 C          60.9799   89.9791   10.1045 C.ar    1  UNL1        0.0391
      9 C          62.0129   89.8343   11.1824 C.ar    1  UNL1        0.1645
     10 O          62.7578   90.8464   12.0014 O.2     1  UNL1       -0.4384
     11 C          63.6722   90.1070   12.9326 C.ar    1  UNL1        0.2052
     12 N          63.4925   88.6378   12.6892 N.ar    1  UNL1       -0.2119
     13 C          62.4669   88.4693   11.6075 C.ar    1  UNL1        0.1228
     14 C          64.6029   90.7278   13.9319 C.3     1  UNL1        0.0766
     15 C          65.9499   91.2896   14.2782 C.3     1  UNL1        0.0097
     16 C          64.8680   91.2411   15.3161 C.3     1  UNL1        0.0097
     17 C          63.6826   83.1125   12.9294 C.3     1  UNL1        0.0878
     18 C          62.9166   82.6354   13.9421 C.3     1  UNL1        0.0919
     19 N          62.4726   82.3005   14.5492 N.3     1  UNL1       -0.2713
     20 C          63.4118   81.3836   13.8231 C.3     1  UNL1        0.0722
     21 C          64.2588   81.9112   12.7031 C.3     1  UNL1        0.0191
     22 C          64.1667   83.3556   12.3093 C.3     1  UNL1        0.0221
     23 C          63.2275   84.2726   13.0355 C.3     1  UNL1        0.0191
     24 C          62.3805   83.7450   14.1554 C.3     1  UNL1        0.0722
@<TRIPOS>BOND
     1     1     2    2
     2     2     3   am
     3    17     3    1
     4    17    18    1
     5    18    19    1
     6    19    20    1
     7    20    21    1
     8    21    22    1
     9    22    23    1
    10    23    24    1
    11     2     5    1
    12     5     6   ar
    13     6     7   ar
    14     7     8   ar
    15     8     9   ar
    16     9    10   ar
    17    10    11   ar
    18    11    14    1
    19    14    15    1
    20    15    16    1
    21    11    12   ar
    22    12    13   ar
    23    22    17    1
    24    13     5   ar
    25    24    19    1
    26    13     9   ar
    27    16    14    1
    28     3     4    1
@<TRIPOS>MOLECULE
*****
 24 28 0 0 0
SMALL
GASTEIGER

@<TRIPOS>ATOM
      1 O          64.8695   84.2654   14.1087 O.2     1  UNL1       -0.2701
      2 C          63.5869   85.0346   14.2230 C.2     1  UNL1        0.2474
      3 N          62.5181   84.8694   13.1836 N.am    1  UNL1       -0.3011
      4 H          61.6468   85.3275   13.1705 H       1  UNL1        0.1497
      5 C          63.3731   85.9692   15.3768 C.ar    1  UNL1        0.0741
      6 C          62.8816   85.4383   16.6907 C.ar    1  UNL1        0.0062
      7 C          62.6677   86.3728   17.8444 C.ar    1  UNL1        0.0034
      8 C          62.9454   87.8382   17.6840 C.ar    1  UNL1        0.0391
      9 C          63.4369   88.3690   16.3701 C.ar    1  UNL1        0.1645
     10 O          63.7932   89.7538   15.9170 O.2     1  UNL1       -0.4384
     11 C          64.2272   89.6752   14.4833 C.ar    1  UNL1        0.2052
     12 N          64.1392   88.2418   14.0503 N.ar    1  UNL1       -0.2119
     13 C          63.6507   87.4345   15.2164 C.ar    1  UNL1        0.1228
     14 C          64.6713   90.8277   13.6320 C.3     1  UNL1        0.0766
     15 C          64.5157   91.6678   12.3992 C.3     1  UNL1        0.0097
     16 C          65.5961   91.9838   13.3906 C.3     1  UNL1        0.0097
     17 C          63.3999   83.1083   11.3708 C.3     1  UNL1        0.0878
     18 C          63.0130   81.8710   11.7697 C.3     1  UNL1        0.0919
     19 N          62.8007   81.1013   11.9707 N.3     1  UNL1       -0.2713
     20 C          63.5838   81.2697   10.7025 C.3     1  UNL1        0.0722
     21 C          64.0117   82.6380   10.2614 C.3     1  UNL1        0.0191
     22 C          63.6565   83.8379   11.0884 C.3     1  UNL1        0.0221
     23 C          62.8733   83.6695   12.3566 C.3     1  UNL1        0.0191
     24 C          62.4454   82.3012   12.7978 C.3     1  UNL1        0.0722
@<TRIPOS>BOND
     1     1     2    2
     2     2     3   am
     3    17     3    1
     4    17    18    1
     5    18    19    1
     6    19    20    1
     7    20    21    1
     8    21    22    1
     9    22    23    1
    10    23    24    1
    11     2     5    1
    12     5     6   ar
    13     6     7   ar
    14     7     8   ar
    15     8     9   ar
    16     9    10   ar
    17    10    11   ar
    18    11    14    1
    19    14    15    1
    20    15    16    1
    21    11    12   ar
    22    12    13   ar
    23    22    17    1
    24    13     5   ar
    25    24    19    1
    26    13     9   ar
    27    16    14    1
    28     3     4    1
@<TRIPOS>MOLECULE
*****
 24 28 0 0 0
SMALL
GASTEIGER

@<TRIPOS>ATOM
      1 O          62.7650   87.2057    9.7390 O.2     1  UNL1       -0.2701
      2 C          62.0743   87.1523   11.0694 C.2     1  UNL1        0.2474
      3 N          60.5813   87.2759   11.1447 N.am    1  UNL1       -0.3011
      4 H          60.0386   87.2531   11.9659 H       1  UNL1        0.1497
      5 C          62.8765   86.9752   12.3244 C.ar    1  UNL1        0.0741
      6 C          63.5660   88.1532   12.9463 C.ar    1  UNL1        0.0062
      7 C          64.3682   87.9761   14.2013 C.ar    1  UNL1        0.0034
      8 C          64.4808   86.6210   14.8345 C.ar    1  UNL1        0.0391
      9 C          63.7913   85.4430   14.2126 C.ar    1  UNL1        0.1645
     10 O          63.7224   83.9973   14.6067 O.2     1  UNL1       -0.4384
     11 C          62.8776   83.2809   13.5951 C.ar    1  UNL1        0.2052
     12 N          62.4244   84.2838   12.5760 N.ar    1  UNL1       -0.2119
     13 C          62.9891   85.6201   12.9576 C.ar    1  UNL1        0.1228
     14 C          62.5445   81.8183   13.6017 C.3     1  UNL1        0.0766
     15 C          62.9305   80.3969   13.3181 C.3     1  UNL1        0.0097
     16 C          61.5816   80.7066   13.8966 C.3     1  UNL1        0.0097
     17 C          59.6540   87.5697    8.6508 C.3     1  UNL1        0.0878
     18 C          59.8284   88.8660    8.2917 C.3     1  UNL1        0.0919
     19 N          59.9136   89.6416    8.0290 N.3     1  UNL1       -0.2713
     20 C          59.2905   88.6742    7.0669 C.3     1  UNL1        0.0722
     21 C          59.0976   87.2406    7.4640 C.3     1  UNL1        0.0191
     22 C          59.5279   86.7745    8.8233 C.3     1  UNL1        0.0221
     23 C          60.1510   87.7420    9.7855 C.3     1  UNL1        0.0191
     24 C          60.3439   89.1755    9.3883 C.3     1  UNL1        0.0722
@<TRIPOS>BOND
     1     1     2    2
     2     2     3   am
     3    17     3    1
     4    17    18    1
     5    18    19    1
     6    19    20    1
     7    20    21    1
     8    21    22    1
     9    22    23    1
    10    23    24    1
    11     2     5    1
    12     5     6   ar
    13     6     7   ar
    14     7     8   ar
    15     8     9   ar
    16     9    10   ar
    17    10    11   ar
    18    11    14    1
    19    14    15    1
    20    15    16    1
    21    11    12   ar
    22    12    13   ar
    23    22    17    1
    24    13     5   ar
    25    24    19    1
    26    13     9   ar
    27    16    14    1
    28     3     4    1
@<TRIPOS>MOLECULE
*****
 24 28 0 0 0
SMALL
GASTEIGER

@<TRIPOS>ATOM
      1 O          64.1102   86.1742   14.2029 O.2     1  UNL1       -0.2701
      2 C          63.2787   86.6290   13.0403 C.2     1  UNL1        0.2474
      3 N          62.4683   85.6344   12.2631 N.am    1  UNL1       -0.3011
      4 H          61.8940   85.8335   11.4887 H       1  UNL1        0.1497
      5 C          63.2575   88.0786   12.6550 C.ar    1  UNL1        0.0741
      6 C          64.0533   89.0760   13.4435 C.ar    1  UNL1        0.0062
      7 C          64.0320   90.5255   13.0581 C.ar    1  UNL1        0.0034
      8 C          63.2150   90.9775   11.8841 C.ar    1  UNL1        0.0391
      9 C          62.4192   89.9801   11.0956 C.ar    1  UNL1        0.1645
     10 O          61.5270   90.1284    9.8990 O.2     1  UNL1       -0.4384
     11 C          60.9969   88.7707    9.5448 C.ar    1  UNL1        0.2052
     12 N          61.5614   87.7831   10.5225 N.ar    1  UNL1       -0.2119
     13 C          62.4404   88.5306   11.4810 C.ar    1  UNL1        0.1228
     14 C          60.0656   88.4558    8.4117 C.3     1  UNL1        0.0766
     15 C          59.1566   87.4934    7.7065 C.3     1  UNL1        0.0097
     16 C          59.3619   88.8728    7.1544 C.3     1  UNL1        0.0097
     17 C          62.8606   83.2221   13.3552 C.3     1  UNL1        0.0878
     18 C          63.8560   82.6101   12.6665 C.3     1  UNL1        0.0919
     19 N          64.4550   82.1988   12.2791 N.3     1  UNL1       -0.2713
     20 C          63.7970   81.4963   13.4295 C.3     1  UNL1        0.0722
     21 C          62.6962   82.1731   14.1911 C.3     1  UNL1        0.0191
     22 C          62.2533   83.5524   13.8024 C.3     1  UNL1        0.0221
     23 C          62.9112   84.2551   12.6519 C.3     1  UNL1        0.0191
     24 C          64.0121   83.5783   11.8903 C.3     1  UNL1        0.0722
@<TRIPOS>BOND
     1     1     2    2
     2     2     3   am
     3    17     3    1
     4    17    18    1
     5    18    19    1
     6    19    20    1
     7    20    21    1
     8    21    22    1
     9    22    23    1
    10    23    24    1
    11     2     5    1
    12     5     6   ar
    13     6     7   ar
    14     7     8   ar
    15     8     9   ar
    16     9    10   ar
    17    10    11   ar
    18    11    14    1
    19    14    15    1
    20    15    16    1
    21    11    12   ar
    22    12    13   ar
    23    22    17    1
    24    13     5   ar
    25    24    19    1
    26    13     9   ar
    27    16    14    1
    28     3     4    1
