@<TRIPOS>MOLECULE
*****
 38 42 0 0 0
SMALL
GASTEIGER

@<TRIPOS>ATOM
      1 C          63.0656   88.9410   12.3356 C.3     1  UNL1        0.1628
      2 N          63.9351   89.9332   13.0493 N.ar    1  UNL1       -0.3047
      3 C          64.3111   89.8924   14.5008 C.ar    1  UNL1        0.1441
      4 N          65.1897   91.0744   14.7854 N.ar    1  UNL1       -0.2267
      5 C          65.3567   91.8457   13.5098 C.ar    1  UNL1        0.1010
      6 C          66.1146   93.0991   13.1866 C.ar    1  UNL1        0.0526
      7 C          66.0971   93.6472   11.7905 C.ar    1  UNL1        0.1690
      8 F          66.8551   94.9007   11.4673 F       1  UNL1       -0.2017
      9 C          65.3217   92.9419   10.7175 C.ar    1  UNL1        0.1689
     10 F          65.3043   93.4900    9.3213 F       1  UNL1       -0.2017
     11 C          64.5638   91.6885   11.0407 C.ar    1  UNL1        0.0507
     12 C          64.5813   91.1404   12.4368 C.ar    1  UNL1        0.0816
     13 C          63.8836   88.8523   15.4935 C.ar    1  UNL1        0.0342
     14 C          64.3080   87.4249   15.3139 C.ar    1  UNL1        0.0039
     15 C          63.8805   86.3847   16.3066 C.ar    1  UNL1        0.0115
     16 C          63.0286   86.7720   17.4788 C.ar    1  UNL1        0.0577
     17 CL         62.6011   85.7319   18.4715 Cl      1  UNL1       -0.0822
     18 C          62.6042   88.1995   17.6584 C.ar    1  UNL1        0.0115
     19 C          63.0317   89.2396   16.6658 C.ar    1  UNL1        0.0039
     20 C          61.9825   89.4189   11.4145 C.3     1  UNL1        0.0297
     21 C          60.7831   90.1273   11.9711 C.3     1  UNL1        0.0024
     22 C          59.6999   90.6052   11.0500 C.3     1  UNL1        0.0001
     23 C          59.8161   90.3747    9.5724 C.3     1  UNL1        0.0000
     24 C          61.0154   89.6663    9.0159 C.3     1  UNL1        0.0001
     25 C          62.0986   89.1884    9.9369 C.3     1  UNL1        0.0024
     26 O          64.3971   86.6507   13.1154 O.2     1  UNL1       -0.2731
     27 C          63.2792   87.4708   12.5429 C.2     1  UNL1        0.2431
     28 N          62.2186   86.4933   12.1308 N.am    1  UNL1       -0.3044
     29 H          61.3823   86.8167   11.7242 H       1  UNL1        0.1494
     30 C          62.4322   85.0232   12.3381 C.3     1  UNL1        0.0716
     31 C          62.2843   84.4298   13.7078 C.3     1  UNL1        0.0199
     32 C          62.4979   82.9595   13.9152 C.3     1  UNL1        0.0072
     33 C          62.8595   82.0829   12.7530 C.3     1  UNL1        0.0367
     34 C          63.0074   82.6764   11.3834 C.3     1  UNL1        0.0072
     35 C          62.7938   84.1466   11.1759 C.3     1  UNL1        0.0199
     36 C          63.0732   80.6128   12.9604 C.2     1  UNL1        0.0500
     37 O          63.6197   80.1108   14.2640 O.co2   1  UNL1       -0.5492
     38 O          62.7403   79.6446   11.8641 O.co2   1  UNL1       -0.5492
@<TRIPOS>UNITY_ATOM_ATTR
37 1
charge -1
@<TRIPOS>BOND
     1    26    27    2
     2    27    28   am
     3    30    28    1
     4    30    31    1
     5    31    32    1
     6    32    33    1
     7    33    36    1
     8    36    37   ar
     9    36    38   ar
    10    33    34    1
    11    34    35    1
    12    27     1    1
    13     1    20    1
    14    20    21    1
    15    21    22    1
    16    22    23    1
    17    23    24    1
    18    24    25    1
    19     1     2    1
    20     2     3   ar
    21     3    13    1
    22    13    14   ar
    23    14    15   ar
    24    15    16   ar
    25    16    17    1
    26    16    18   ar
    27    18    19   ar
    28     3     4   ar
    29     4     5   ar
    30     5     6   ar
    31     6     7   ar
    32     7     8    1
    33     7     9   ar
    34     9    10    1
    35     9    11   ar
    36    11    12   ar
    37    35    30    1
    38    25    20    1
    39    12     2   ar
    40    19    13   ar
    41    12     5   ar
    42    28    29    1
@<TRIPOS>MOLECULE
*****
 38 42 0 0 0
SMALL
GASTEIGER

@<TRIPOS>ATOM
      1 C          62.0421   88.3388   12.0079 C.3     1  UNL1        0.1628
      2 N          62.1632   86.9648   11.4183 N.ar    1  UNL1       -0.3047
      3 C          61.6227   86.5245   10.0902 C.ar    1  UNL1        0.1441
      4 N          61.9715   85.0775    9.9045 N.ar    1  UNL1       -0.2267
      5 C          62.7275   84.6235   11.1179 C.ar    1  UNL1        0.1010
      6 C          63.3234   83.2987   11.4917 C.ar    1  UNL1        0.0526
      7 C          64.0378   83.1403   12.8011 C.ar    1  UNL1        0.1690
      8 F          64.6337   81.8155   13.1749 F       1  UNL1       -0.2017
      9 C          64.1562   84.3068   13.7367 C.ar    1  UNL1        0.1689
     10 F          64.8706   84.1484   15.0461 F       1  UNL1       -0.2017
     11 C          63.5604   85.6316   13.3629 C.ar    1  UNL1        0.0507
     12 C          62.8460   85.7899   12.0535 C.ar    1  UNL1        0.0816
     13 C          60.8662   87.3808    9.1184 C.ar    1  UNL1        0.0342
     14 C          61.2306   88.8262    8.9506 C.ar    1  UNL1        0.0039
     15 C          60.4742   89.6825    7.9788 C.ar    1  UNL1        0.0115
     16 C          59.3532   89.0935    7.1747 C.ar    1  UNL1        0.0577
     17 CL         58.5967   89.9499    6.2029 Cl      1  UNL1       -0.0822
     18 C          58.9888   87.6482    7.3425 C.ar    1  UNL1        0.0115
     19 C          59.7452   86.7919    8.3143 C.ar    1  UNL1        0.0039
     20 C          60.7247   89.0552   11.9759 C.3     1  UNL1        0.0297
     21 C          59.4883   88.3747   12.4842 C.3     1  UNL1        0.0024
     22 C          58.1709   89.0911   12.4524 C.3     1  UNL1        0.0001
     23 C          58.0898   90.4882   11.9122 C.3     1  UNL1        0.0000
     24 C          59.3261   91.1687   11.4039 C.3     1  UNL1        0.0001
     25 C          60.6436   90.4522   11.4358 C.3     1  UNL1        0.0024
     26 O          64.3715   88.5065   13.4818 O.2     1  UNL1       -0.2731
     27 C          63.2386   88.9964   12.6294 C.2     1  UNL1        0.2431
     28 N          63.4735   90.4649   12.4336 N.am    1  UNL1       -0.3044
     29 H          62.8424   90.9972   11.8972 H       1  UNL1        0.1494
     30 C          64.6699   91.1223   13.0551 C.3     1  UNL1        0.0716
     31 C          65.5969   91.9451   12.2102 C.3     1  UNL1        0.0199
     32 C          66.7934   92.6026   12.8317 C.3     1  UNL1        0.0072
     33 C          67.0629   92.4374   14.2980 C.3     1  UNL1        0.0367
     34 C          66.1358   91.6146   15.1428 C.3     1  UNL1        0.0072
     35 C          64.9394   90.9571   14.5214 C.3     1  UNL1        0.0199
     36 C          68.2593   93.0949   14.9195 C.2     1  UNL1        0.0500
     37 O          69.6373   92.7614   14.4297 O.co2   1  UNL1       -0.5492
     38 O          68.0776   94.0858   16.0308 O.co2   1  UNL1       -0.5492
@<TRIPOS>UNITY_ATOM_ATTR
37 1
charge -1
@<TRIPOS>BOND
     1    26    27    2
     2    27    28   am
     3    30    28    1
     4    30    31    1
     5    31    32    1
     6    32    33    1
     7    33    36    1
     8    36    37   ar
     9    36    38   ar
    10    33    34    1
    11    34    35    1
    12    27     1    1
    13     1    20    1
    14    20    21    1
    15    21    22    1
    16    22    23    1
    17    23    24    1
    18    24    25    1
    19     1     2    1
    20     2     3   ar
    21     3    13    1
    22    13    14   ar
    23    14    15   ar
    24    15    16   ar
    25    16    17    1
    26    16    18   ar
    27    18    19   ar
    28     3     4   ar
    29     4     5   ar
    30     5     6   ar
    31     6     7   ar
    32     7     8    1
    33     7     9   ar
    34     9    10    1
    35     9    11   ar
    36    11    12   ar
    37    35    30    1
    38    25    20    1
    39    12     2   ar
    40    19    13   ar
    41    12     5   ar
    42    28    29    1
@<TRIPOS>MOLECULE
*****
 38 42 0 0 0
SMALL
GASTEIGER

@<TRIPOS>ATOM
      1 C          62.9880   85.0091   12.2163 C.3     1  UNL1        0.1628
      2 N          62.8524   83.6762   12.8908 N.ar    1  UNL1       -0.3047
      3 C          62.7142   83.4448   14.3664 C.ar    1  UNL1        0.1441
      4 N          62.6075   81.9662   14.5957 N.ar    1  UNL1       -0.2267
      5 C          62.6797   81.2839   13.2618 C.ar    1  UNL1        0.1010
      6 C          62.6272   79.8368   12.8705 C.ar    1  UNL1        0.0526
      7 C          62.7261   79.4466   11.4256 C.ar    1  UNL1        0.1690
      8 F          62.6736   77.9994   11.0342 F       1  UNL1       -0.2017
      9 C          62.8774   80.5034   10.3719 C.ar    1  UNL1        0.1689
     10 F          62.9762   80.1131    8.9269 F       1  UNL1       -0.2017
     11 C          62.9299   81.9505   10.7632 C.ar    1  UNL1        0.0507
     12 C          62.8310   82.3407   12.2081 C.ar    1  UNL1        0.0816
     13 C          62.6875   84.5056   15.4266 C.ar    1  UNL1        0.0342
     14 C          61.4076   85.2237   15.7369 C.ar    1  UNL1        0.0039
     15 C          61.3809   86.2845   16.7970 C.ar    1  UNL1        0.0115
     16 C          62.6339   86.6272   17.5469 C.ar    1  UNL1        0.0577
     17 CL         62.6072   87.6880   18.6071 Cl      1  UNL1       -0.0822
     18 C          63.9138   85.9091   17.2366 C.ar    1  UNL1        0.0115
     19 C          63.9405   84.8483   16.1765 C.ar    1  UNL1        0.0039
     20 C          62.5577   85.1747   10.7890 C.3     1  UNL1        0.0297
     21 C          63.4359   84.6790    9.6785 C.3     1  UNL1        0.0024
     22 C          63.0056   84.8445    8.2511 C.3     1  UNL1        0.0001
     23 C          61.6970   85.5058    7.9342 C.3     1  UNL1        0.0000
     24 C          60.8189   86.0015    9.0446 C.3     1  UNL1        0.0001
     25 C          61.2492   85.8360   10.4720 C.3     1  UNL1        0.0024
     26 O          64.6076   86.3226   14.0270 O.2     1  UNL1       -0.2731
     27 C          63.5540   86.1766   12.9692 C.2     1  UNL1        0.2431
     28 N          63.0420   87.5609   12.7019 N.am    1  UNL1       -0.3044
     29 H          62.3345   87.7033   12.0323 H       1  UNL1        0.1494
     30 C          63.6081   88.7282   13.4548 C.3     1  UNL1        0.0716
     31 C          64.0593   89.9514   12.7131 C.3     1  UNL1        0.0199
     32 C          64.6254   91.1189   13.4660 C.3     1  UNL1        0.0072
     33 C          64.7403   91.0630   14.9605 C.3     1  UNL1        0.0367
     34 C          64.2890   89.8398   15.7022 C.3     1  UNL1        0.0072
     35 C          63.7229   88.6724   14.9493 C.3     1  UNL1        0.0199
     36 C          65.3063   92.2304   15.7134 C.2     1  UNL1        0.0500
     37 O          66.4576   93.0041   15.1425 O.co2   1  UNL1       -0.5492
     38 O          64.7210   92.6240   17.0372 O.co2   1  UNL1       -0.5492
@<TRIPOS>UNITY_ATOM_ATTR
37 1
charge -1
@<TRIPOS>BOND
     1    26    27    2
     2    27    28   am
     3    30    28    1
     4    30    31    1
     5    31    32    1
     6    32    33    1
     7    33    36    1
     8    36    37   ar
     9    36    38   ar
    10    33    34    1
    11    34    35    1
    12    27     1    1
    13     1    20    1
    14    20    21    1
    15    21    22    1
    16    22    23    1
    17    23    24    1
    18    24    25    1
    19     1     2    1
    20     2     3   ar
    21     3    13    1
    22    13    14   ar
    23    14    15   ar
    24    15    16   ar
    25    16    17    1
    26    16    18   ar
    27    18    19   ar
    28     3     4   ar
    29     4     5   ar
    30     5     6   ar
    31     6     7   ar
    32     7     8    1
    33     7     9   ar
    34     9    10    1
    35     9    11   ar
    36    11    12   ar
    37    35    30    1
    38    25    20    1
    39    12     2   ar
    40    19    13   ar
    41    12     5   ar
    42    28    29    1
@<TRIPOS>MOLECULE
*****
 38 42 0 0 0
SMALL
GASTEIGER

@<TRIPOS>ATOM
      1 C          62.8925   85.5791   11.3353 C.3     1  UNL1        0.1628
      2 N          63.2166   86.0816   12.7110 N.ar    1  UNL1       -0.3047
      3 C          63.3617   85.2413   13.9451 C.ar    1  UNL1        0.1441
      4 N          63.6873   86.1529   15.0909 N.ar    1  UNL1       -0.2267
      5 C          63.7433   87.5566   14.5650 C.ar    1  UNL1        0.1010
      6 C          64.0217   88.8692   15.2355 C.ar    1  UNL1        0.0526
      7 C          64.0091   90.1377   14.4351 C.ar    1  UNL1        0.1690
      8 F          64.2874   91.4504   15.1055 F       1  UNL1       -0.2017
      9 C          63.7182   90.0936   12.9642 C.ar    1  UNL1        0.1689
     10 F          63.7056   91.3622   12.1638 F       1  UNL1       -0.2017
     11 C          63.4398   88.7810   12.2938 C.ar    1  UNL1        0.0507
     12 C          63.4524   87.5125   13.0942 C.ar    1  UNL1        0.0816
     13 C          63.2083   83.7510   14.0201 C.ar    1  UNL1        0.0342
     14 C          61.8756   83.1503   14.3563 C.ar    1  UNL1        0.0039
     15 C          61.7222   81.6600   14.4313 C.ar    1  UNL1        0.0115
     16 C          62.9014   80.7706   14.1702 C.ar    1  UNL1        0.0577
     17 CL         62.7479   79.2803   14.2452 Cl      1  UNL1       -0.0822
     18 C          64.2340   81.3713   13.8340 C.ar    1  UNL1        0.0115
     19 C          64.3875   82.8616   13.7590 C.ar    1  UNL1        0.0039
     20 C          63.1245   84.1383   10.9891 C.3     1  UNL1        0.0297
     21 C          64.4514   83.7027   10.4417 C.3     1  UNL1        0.0024
     22 C          64.6836   82.2618   10.0954 C.3     1  UNL1        0.0001
     23 C          63.5887   81.2564   10.2965 C.3     1  UNL1        0.0000
     24 C          62.2618   81.6919   10.8439 C.3     1  UNL1        0.0001
     25 C          62.0297   83.1328   11.1902 C.3     1  UNL1        0.0024
     26 O          62.9513   87.4674    9.3210 O.2     1  UNL1       -0.2731
     27 C          62.3363   86.5177   10.3058 C.2     1  UNL1        0.2431
     28 N          60.8525   86.6286   10.1157 N.am    1  UNL1       -0.3044
     29 H          60.2437   86.0853   10.6666 H       1  UNL1        0.1494
     30 C          60.2964   87.5671    9.0862 C.3     1  UNL1        0.0716
     31 C          59.6048   87.0232    7.8713 C.3     1  UNL1        0.0199
     32 C          59.0486   87.9617    6.8417 C.3     1  UNL1        0.0072
     33 C          59.1841   89.4441    7.0270 C.3     1  UNL1        0.0367
     34 C          59.8758   89.9879    8.2420 C.3     1  UNL1        0.0072
     35 C          60.4319   89.0494    9.2715 C.3     1  UNL1        0.0199
     36 C          58.6280   90.3826    5.9975 C.2     1  UNL1        0.0500
     37 O          57.1436   90.5174    5.8294 O.co2   1  UNL1       -0.5492
     38 O          59.5565   91.1863    5.1361 O.co2   1  UNL1       -0.5492
@<TRIPOS>UNITY_ATOM_ATTR
37 1
charge -1
@<TRIPOS>BOND
     1    26    27    2
     2    27    28   am
     3    30    28    1
     4    30    31    1
     5    31    32    1
     6    32    33    1
     7    33    36    1
     8    36    37   ar
     9    36    38   ar
    10    33    34    1
    11    34    35    1
    12    27     1    1
    13     1    20    1
    14    20    21    1
    15    21    22    1
    16    22    23    1
    17    23    24    1
    18    24    25    1
    19     1     2    1
    20     2     3   ar
    21     3    13    1
    22    13    14   ar
    23    14    15   ar
    24    15    16   ar
    25    16    17    1
    26    16    18   ar
    27    18    19   ar
    28     3     4   ar
    29     4     5   ar
    30     5     6   ar
    31     6     7   ar
    32     7     8    1
    33     7     9   ar
    34     9    10    1
    35     9    11   ar
    36    11    12   ar
    37    35    30    1
    38    25    20    1
    39    12     2   ar
    40    19    13   ar
    41    12     5   ar
    42    28    29    1
@<TRIPOS>MOLECULE
*****
 38 42 0 0 0
SMALL
GASTEIGER

@<TRIPOS>ATOM
      1 C          62.8813   88.4759   12.0130 C.3     1  UNL1        0.1628
      2 N          63.4379   87.4403   12.9445 N.ar    1  UNL1       -0.3047
      3 C          64.0482   87.7012   14.2897 C.ar    1  UNL1        0.1441
      4 N          64.4695   86.3841   14.8708 N.ar    1  UNL1       -0.2267
      5 C          64.1196   85.3092   13.8848 C.ar    1  UNL1        0.1010
      6 C          64.2992   83.8204   13.9172 C.ar    1  UNL1        0.0526
      7 C          63.8413   82.9843   12.7591 C.ar    1  UNL1        0.1690
      8 F          64.0209   81.4954   12.7914 F       1  UNL1       -0.2017
      9 C          63.2038   83.6371   11.5685 C.ar    1  UNL1        0.1689
     10 F          62.7458   82.8010   10.4103 F       1  UNL1       -0.2017
     11 C          63.0242   85.1260   11.5361 C.ar    1  UNL1        0.0507
     12 C          63.4821   85.9620   12.6942 C.ar    1  UNL1        0.0816
     13 C          64.2089   89.0435   14.9396 C.ar    1  UNL1        0.0342
     14 C          65.4156   89.8823   14.6398 C.ar    1  UNL1        0.0039
     15 C          65.5763   91.2246   15.2897 C.ar    1  UNL1        0.0115
     16 C          64.5303   91.7280   16.2395 C.ar    1  UNL1        0.0577
     17 CL         64.6910   93.0703   16.8895 Cl      1  UNL1       -0.0822
     18 C          63.3235   90.8892   16.5394 C.ar    1  UNL1        0.0115
     19 C          63.1628   89.5469   15.8895 C.ar    1  UNL1        0.0039
     20 C          61.8498   88.0915   10.9942 C.3     1  UNL1        0.0297
     21 C          62.2709   87.4456    9.7074 C.3     1  UNL1        0.0024
     22 C          61.2394   87.0611    8.6885 C.3     1  UNL1        0.0001
     23 C          59.7868   87.3225    8.9563 C.3     1  UNL1        0.0000
     24 C          59.3658   87.9683   10.2429 C.3     1  UNL1        0.0001
     25 C          60.3972   88.3528   11.2619 C.3     1  UNL1        0.0024
     26 O          62.9675   91.0749   12.9429 O.2     1  UNL1       -0.2731
     27 C          63.3561   89.8962   12.1005 C.2     1  UNL1        0.2431
     28 N          64.4586   90.3750   11.2031 N.am    1  UNL1       -0.3044
     29 H          64.8705   89.7571   10.5567 H       1  UNL1        0.1494
     30 C          64.9334   91.7951   11.2906 C.3     1  UNL1        0.0716
     31 C          64.6582   92.7485   10.1657 C.3     1  UNL1        0.0199
     32 C          65.1330   94.1688   10.2531 C.3     1  UNL1        0.0072
     33 C          65.8829   94.6356   11.4654 C.3     1  UNL1        0.0367
     34 C          66.1581   93.6821   12.5902 C.3     1  UNL1        0.0072
     35 C          65.6834   92.2619   12.5028 C.3     1  UNL1        0.0199
     36 C          66.3577   96.0557   11.5529 C.2     1  UNL1        0.0500
     37 O          67.0852   96.6759   10.3970 O.co2   1  UNL1       -0.5492
     38 O          66.1049   96.8557   12.7963 O.co2   1  UNL1       -0.5492
@<TRIPOS>UNITY_ATOM_ATTR
37 1
charge -1
@<TRIPOS>BOND
     1    26    27    2
     2    27    28   am
     3    30    28    1
     4    30    31    1
     5    31    32    1
     6    32    33    1
     7    33    36    1
     8    36    37   ar
     9    36    38   ar
    10    33    34    1
    11    34    35    1
    12    27     1    1
    13     1    20    1
    14    20    21    1
    15    21    22    1
    16    22    23    1
    17    23    24    1
    18    24    25    1
    19     1     2    1
    20     2     3   ar
    21     3    13    1
    22    13    14   ar
    23    14    15   ar
    24    15    16   ar
    25    16    17    1
    26    16    18   ar
    27    18    19   ar
    28     3     4   ar
    29     4     5   ar
    30     5     6   ar
    31     6     7   ar
    32     7     8    1
    33     7     9   ar
    34     9    10    1
    35     9    11   ar
    36    11    12   ar
    37    35    30    1
    38    25    20    1
    39    12     2   ar
    40    19    13   ar
    41    12     5   ar
    42    28    29    1
@<TRIPOS>MOLECULE
*****
 38 42 0 0 0
SMALL
GASTEIGER

@<TRIPOS>ATOM
      1 C          63.4438   89.3654   13.0278 C.3     1  UNL1        0.1628
      2 N          63.6675   90.3867   11.9522 N.ar    1  UNL1       -0.3047
      3 C          62.9700   90.4367   10.6251 C.ar    1  UNL1        0.1441
      4 N          63.4995   91.6181    9.8676 N.ar    1  UNL1       -0.2267
      5 C          64.5241   92.2982   10.7264 C.ar    1  UNL1        0.1010
      6 C          65.3760   93.5122   10.5017 C.ar    1  UNL1        0.0526
      7 C          66.3317   93.9651   11.5654 C.ar    1  UNL1        0.1690
      8 F          67.1837   95.1791   11.3407 F       1  UNL1       -0.2017
      9 C          66.4356   93.2040   12.8537 C.ar    1  UNL1        0.1689
     10 F          67.3914   93.6569   13.9175 F       1  UNL1       -0.2017
     11 C          65.5837   91.9900   13.0784 C.ar    1  UNL1        0.0507
     12 C          64.6280   91.5371   12.0148 C.ar    1  UNL1        0.0816
     13 C          61.9264   89.4743   10.1407 C.ar    1  UNL1        0.0342
     14 C          62.3175   88.3237    9.2616 C.ar    1  UNL1        0.0039
     15 C          61.2739   87.3613    8.7772 C.ar    1  UNL1        0.0115
     16 C          59.8391   87.5496    9.1719 C.ar    1  UNL1        0.0577
     17 CL         58.7955   86.5872    8.6875 Cl      1  UNL1       -0.0822
     18 C          59.4479   88.7003   10.0510 C.ar    1  UNL1        0.0115
     19 C          60.4916   89.6627   10.5354 C.ar    1  UNL1        0.0039
     20 C          63.4857   89.7740   14.4704 C.3     1  UNL1        0.0297
     21 C          63.1224   88.7874   15.5403 C.3     1  UNL1        0.0024
     22 C          63.1643   89.1959   16.9830 C.3     1  UNL1        0.0001
     23 C          63.5695   90.5912   17.3558 C.3     1  UNL1        0.0000
     24 C          63.9328   91.5779   16.2860 C.3     1  UNL1        0.0001
     25 C          63.8909   91.1693   14.8433 C.3     1  UNL1        0.0024
     26 O          62.2818   87.2652   11.6621 O.2     1  UNL1       -0.2731
     27 C          63.1781   87.9354   12.6608 C.2     1  UNL1        0.2431
     28 N          63.9022   86.8314   13.3728 N.am    1  UNL1       -0.3044
     29 H          64.5517   87.0453   14.0810 H       1  UNL1        0.1494
     30 C          63.6364   85.4015   13.0058 C.3     1  UNL1        0.0716
     31 C          63.9399   84.3070   13.9855 C.3     1  UNL1        0.0199
     32 C          63.6742   82.8769   13.6185 C.3     1  UNL1        0.0072
     33 C          63.1051   82.5416   12.2718 C.3     1  UNL1        0.0367
     34 C          62.8017   83.6362   11.2921 C.3     1  UNL1        0.0072
     35 C          63.0673   85.0661   11.6591 C.3     1  UNL1        0.0199
     36 C          62.8393   81.1117   11.9048 C.2     1  UNL1        0.0500
     37 O          63.0004   80.6597   10.4836 O.co2   1  UNL1       -0.5492
     38 O          62.4126   80.1337   12.9590 O.co2   1  UNL1       -0.5492
@<TRIPOS>UNITY_ATOM_ATTR
37 1
charge -1
@<TRIPOS>BOND
     1    26    27    2
     2    27    28   am
     3    30    28    1
     4    30    31    1
     5    31    32    1
     6    32    33    1
     7    33    36    1
     8    36    37   ar
     9    36    38   ar
    10    33    34    1
    11    34    35    1
    12    27     1    1
    13     1    20    1
    14    20    21    1
    15    21    22    1
    16    22    23    1
    17    23    24    1
    18    24    25    1
    19     1     2    1
    20     2     3   ar
    21     3    13    1
    22    13    14   ar
    23    14    15   ar
    24    15    16   ar
    25    16    17    1
    26    16    18   ar
    27    18    19   ar
    28     3     4   ar
    29     4     5   ar
    30     5     6   ar
    31     6     7   ar
    32     7     8    1
    33     7     9   ar
    34     9    10    1
    35     9    11   ar
    36    11    12   ar
    37    35    30    1
    38    25    20    1
    39    12     2   ar
    40    19    13   ar
    41    12     5   ar
    42    28    29    1
