@<TRIPOS>MOLECULE
*****
 45 49 0 0 0
SMALL
GASTEIGER

@<TRIPOS>ATOM
      1 N          64.2296   90.5013   13.2292 N.am    1  UNL1       -0.2770
      2 C          63.0996   89.9192   12.4330 C.2     1  UNL1        0.2254
      3 O          62.1890   88.9027   13.0556 O.2     1  UNL1       -0.2749
      4 C          62.8800   90.3535   11.0142 C.3     1  UNL1        0.0780
      5 C          62.2708   90.4461    9.6466 C.3     1  UNL1        0.0096
      6 C          63.7906   91.3700   10.3915 C.3     1  UNL1        0.0154
      7 C          64.9207   91.9521   11.1877 C.3     1  UNL1        0.0452
      8 C          65.1402   91.5178   12.6066 C.3     1  UNL1        0.1018
      9 C          65.8313   92.9686   10.5651 C.ar    1  UNL1       -0.0197
     10 C          67.1683   92.5497   10.0297 C.ar    1  UNL1       -0.0042
     11 C          68.0789   93.5661    9.4070 C.ar    1  UNL1        0.0005
     12 C          67.6524   95.0016    9.3199 C.ar    1  UNL1        0.0114
     13 C          66.3154   95.4205    9.8554 C.ar    1  UNL1        0.0574
     14 CL         65.8889   96.8560    9.7683 Cl      1  UNL1       -0.0823
     15 C          65.4048   94.4040   10.4780 C.ar    1  UNL1        0.0072
     16 C          66.2704   92.0999   13.4029 C.ar    1  UNL1       -0.0039
     17 C          67.5312   91.3121   13.6022 C.ar    1  UNL1       -0.0018
     18 C          68.6613   91.8942   14.3984 C.ar    1  UNL1        0.0111
     19 C          68.5306   93.2641   14.9954 C.ar    1  UNL1        0.0577
     20 CL         69.6607   93.8462   15.7916 Cl      1  UNL1       -0.0822
     21 C          67.2698   94.0519   14.7961 C.ar    1  UNL1        0.0111
     22 C          66.1396   93.4698   13.9998 C.ar    1  UNL1       -0.0018
     23 C          64.4492   90.0670   14.6481 C.3     1  UNL1        0.0991
     24 C          64.2115   91.0307   15.7727 C.3     1  UNL1        0.0200
     25 C          63.2772   91.6870   16.7455 C.3     1  UNL1        0.0018
     26 C          64.7342   92.0435   16.7479 C.3     1  UNL1        0.0018
     27 C          64.9064   88.6690   14.9423 C.3     1  UNL1        0.1703
     28 S          64.0400   87.7516   15.7533 S.O2    1  UNL1       -0.0115
     29 O          64.8835   86.5842   15.3340 O.2     1  UNL1       -0.1730
     30 O          63.1966   88.9189   16.1727 O.2     1  UNL1       -0.1730
     31 C          62.6179   88.0141   17.3052 C.3     1  UNL1        0.0236
     32 C          63.1736   86.8342   16.5643 C.3     1  UNL1        0.1108
     33 C          63.7294   85.6543   15.8234 C.3     1  UNL1        0.0236
     34 C          62.3073   85.9168   17.3753 C.3     1  UNL1        0.0236
     35 C          61.7579   89.3692   11.1618 C.3     1  UNL1        0.0939
     36 C          61.7574   88.1055   10.3536 C.2     1  UNL1        0.2261
     37 O          61.1794   88.1007    8.9694 O.2     1  UNL1       -0.2749
     38 N          62.3350   86.8467   10.9297 N.am    1  UNL1       -0.2791
     39 C          62.9446   86.6993   12.2922 C.3     1  UNL1        0.0938
     40 C          63.3907   85.2758   12.4488 C.3     1  UNL1        0.0288
     41 C          63.0567   84.5433   11.1831 C.3     1  UNL1        0.0581
     42 C          62.4042   85.5143   10.2442 C.3     1  UNL1        0.0989
     43 C          63.3277   83.0945   10.9051 C.2     1  UNL1        0.0517
     44 O          64.4130   82.7049    9.9459 O.co2   1  UNL1       -0.5491
     45 O          62.5131   82.0350   11.5865 O.co2   1  UNL1       -0.5491
@<TRIPOS>UNITY_ATOM_ATTR
44 1
charge -1
@<TRIPOS>BOND
     1    31    32    1
     2    32    33    1
     3    32    34    1
     4    32    28    1
     5    28    29    2
     6    28    30    2
     7    28    27    1
     8    23    27    1
     9    23    24    1
    10    24    25    1
    11    25    26    1
    12    23     1    1
    13     1     2   am
    14     2     3    2
    15     2     4    1
    16     4     5    1
    17     4    35    1
    18    35    36    1
    19    36    37    2
    20    36    38   am
    21    38    39    1
    22    39    40    1
    23    40    41    1
    24    41    43    1
    25    43    44   ar
    26    43    45   ar
    27    41    42    1
    28     4     6    1
    29     6     7    1
    30     7     9    1
    31     9    10   ar
    32    10    11   ar
    33    11    12   ar
    34    12    13   ar
    35    13    14    1
    36    13    15   ar
    37     7     8    1
    38     8    16    1
    39    16    17   ar
    40    17    18   ar
    41    18    19   ar
    42    19    20    1
    43    19    21   ar
    44    21    22   ar
    45    26    24    1
    46     8     1    1
    47    22    16   ar
    48    42    38    1
    49    15     9   ar
@<TRIPOS>MOLECULE
*****
 45 49 0 0 0
SMALL
GASTEIGER

@<TRIPOS>ATOM
      1 N          63.5263   86.3809   13.2969 N.am    1  UNL1       -0.2770
      2 C          63.4581   87.8398   13.6387 C.2     1  UNL1        0.2254
      3 O          63.9163   88.3171   14.9849 O.2     1  UNL1       -0.2749
      4 C          62.9316   88.8216   12.6342 C.3     1  UNL1        0.0780
      5 C          62.5139   90.1264   12.0236 C.3     1  UNL1        0.0096
      6 C          62.4733   88.3444   11.2880 C.3     1  UNL1        0.0154
      7 C          62.5415   86.8854   10.9463 C.3     1  UNL1        0.0452
      8 C          63.0680   85.9037   11.9507 C.3     1  UNL1        0.1018
      9 C          62.0832   86.4082    9.6001 C.ar    1  UNL1       -0.0197
     10 C          63.0163   85.6261    8.7240 C.ar    1  UNL1       -0.0042
     11 C          62.5580   85.1489    7.3778 C.ar    1  UNL1        0.0005
     12 C          61.1667   85.4538    6.9077 C.ar    1  UNL1        0.0114
     13 C          60.2336   86.2360    7.7837 C.ar    1  UNL1        0.0574
     14 CL         58.8422   86.5410    7.3136 Cl      1  UNL1       -0.0823
     15 C          60.6919   86.7132    9.1299 C.ar    1  UNL1        0.0072
     16 C          63.1362   84.4447   11.6090 C.ar    1  UNL1       -0.0039
     17 C          64.4672   83.7835   11.4055 C.ar    1  UNL1       -0.0018
     18 C          64.5355   82.3246   11.0638 C.ar    1  UNL1        0.0111
     19 C          63.2727   81.5268   10.9256 C.ar    1  UNL1        0.0577
     20 CL         63.3410   80.0678   10.5839 Cl      1  UNL1       -0.0822
     21 C          61.9418   82.1879   11.1291 C.ar    1  UNL1        0.0111
     22 C          61.8735   83.6469   11.4708 C.ar    1  UNL1       -0.0018
     23 C          64.0528   85.3991   14.3014 C.3     1  UNL1        0.0991
     24 C          65.5316   85.2611   14.5114 C.3     1  UNL1        0.0200
     25 C          66.8258   84.5624   14.2167 C.3     1  UNL1        0.0018
     26 C          66.7987   85.7206   15.1696 C.3     1  UNL1        0.0018
     27 C          63.1005   84.5554   15.0959 C.3     1  UNL1        0.1703
     28 S          62.9285   83.1029   14.7633 S.O2    1  UNL1       -0.0115
     29 O          61.5046   83.3617   14.3690 O.2     1  UNL1       -0.1730
     30 O          64.3523   82.8440   15.1576 O.2     1  UNL1       -0.1730
     31 C          64.2465   81.4860   14.3781 C.3     1  UNL1        0.0236
     32 C          62.7565   81.6504   14.4306 C.3     1  UNL1        0.1108
     33 C          61.2665   81.8147   14.4832 C.3     1  UNL1        0.0236
     34 C          62.5845   80.1979   14.0980 C.3     1  UNL1        0.0236
     35 C          63.2448   89.7520   13.7683 C.3     1  UNL1        0.0939
     36 C          64.5353   90.5165   13.7768 C.2     1  UNL1        0.2261
     37 O          65.4720   90.3939   14.9420 O.2     1  UNL1       -0.2749
     38 N          64.8890   91.4038   12.6202 N.am    1  UNL1       -0.2791
     39 C          64.0566   91.6254   11.3922 C.3     1  UNL1        0.0938
     40 C          64.7905   92.5837   10.5016 C.3     1  UNL1        0.0288
     41 C          66.0764   92.9543   11.1792 C.3     1  UNL1        0.0581
     42 C          66.1373   92.2250   12.4886 C.3     1  UNL1        0.0989
     43 C          67.1184   93.8899   10.6417 C.2     1  UNL1        0.0517
     44 O          68.2973   93.3473    9.8896 O.co2   1  UNL1       -0.5491
     45 O          66.9815   95.3681   10.8565 O.co2   1  UNL1       -0.5491
@<TRIPOS>UNITY_ATOM_ATTR
44 1
charge -1
@<TRIPOS>BOND
     1    31    32    1
     2    32    33    1
     3    32    34    1
     4    32    28    1
     5    28    29    2
     6    28    30    2
     7    28    27    1
     8    23    27    1
     9    23    24    1
    10    24    25    1
    11    25    26    1
    12    23     1    1
    13     1     2   am
    14     2     3    2
    15     2     4    1
    16     4     5    1
    17     4    35    1
    18    35    36    1
    19    36    37    2
    20    36    38   am
    21    38    39    1
    22    39    40    1
    23    40    41    1
    24    41    43    1
    25    43    44   ar
    26    43    45   ar
    27    41    42    1
    28     4     6    1
    29     6     7    1
    30     7     9    1
    31     9    10   ar
    32    10    11   ar
    33    11    12   ar
    34    12    13   ar
    35    13    14    1
    36    13    15   ar
    37     7     8    1
    38     8    16    1
    39    16    17   ar
    40    17    18   ar
    41    18    19   ar
    42    19    20    1
    43    19    21   ar
    44    21    22   ar
    45    26    24    1
    46     8     1    1
    47    22    16   ar
    48    42    38    1
    49    15     9   ar
@<TRIPOS>MOLECULE
*****
 45 49 0 0 0
SMALL
GASTEIGER

@<TRIPOS>ATOM
      1 N          62.0468   87.3786   11.1904 N.am    1  UNL1       -0.2770
      2 C          61.7398   87.4080    9.7225 C.2     1  UNL1        0.2254
      3 O          61.3130   88.6900    9.0710 O.2     1  UNL1       -0.2749
      4 C          61.8597   86.1555    8.9060 C.3     1  UNL1        0.0780
      5 C          61.8274   85.2374    7.7202 C.3     1  UNL1        0.0096
      6 C          62.2865   84.8735    9.5574 C.3     1  UNL1        0.0154
      7 C          62.5935   84.8441   11.0253 C.3     1  UNL1        0.0452
      8 C          62.4736   86.0967   11.8418 C.3     1  UNL1        0.1018
      9 C          63.0203   83.5621   11.6768 C.ar    1  UNL1       -0.0197
     10 C          64.4581   83.1378   11.6266 C.ar    1  UNL1       -0.0042
     11 C          64.8850   81.8558   12.2780 C.ar    1  UNL1        0.0005
     12 C          63.8740   80.9982   12.9797 C.ar    1  UNL1        0.0114
     13 C          62.4362   81.4226   13.0299 C.ar    1  UNL1        0.0574
     14 CL         61.4251   80.5649   13.7316 Cl      1  UNL1       -0.0823
     15 C          62.0093   82.7045   12.3785 C.ar    1  UNL1        0.0072
     16 C          62.7806   86.0673   13.3098 C.ar    1  UNL1       -0.0039
     17 C          61.9168   85.2692   14.2408 C.ar    1  UNL1       -0.0018
     18 C          62.2237   85.2398   15.7088 C.ar    1  UNL1        0.0111
     19 C          63.3945   86.0085   16.2458 C.ar    1  UNL1        0.0577
     20 CL         63.7014   85.9791   17.7137 Cl      1  UNL1       -0.0822
     21 C          64.2583   86.8067   15.3148 C.ar    1  UNL1        0.0111
     22 C          63.9513   86.8360   13.8468 C.ar    1  UNL1       -0.0018
     23 C          61.9269   88.6312   12.0070 C.3     1  UNL1        0.0991
     24 C          60.6027   89.3260   12.1245 C.3     1  UNL1        0.0200
     25 C          59.2110   89.3838   12.6809 C.3     1  UNL1        0.0018
     26 C          59.7010   90.4716   11.7718 C.3     1  UNL1        0.0018
     27 C          63.1312   89.1890   12.7059 C.3     1  UNL1        0.1703
     28 S          63.7595   90.4608   12.2181 S.O2    1  UNL1       -0.0115
     29 O          63.4768   90.0571   10.8014 O.2     1  UNL1       -0.1730
     30 O          64.0422   90.8644   13.6348 O.2     1  UNL1       -0.1730
     31 C          65.1359   91.8591   13.0242 C.3     1  UNL1        0.0236
     32 C          64.3878   91.7325   11.7303 C.3     1  UNL1        0.1108
     33 C          63.6396   91.6058   10.4364 C.3     1  UNL1        0.0236
     34 C          65.0160   93.0042   11.2426 C.3     1  UNL1        0.0236
     35 C          61.4217   87.1185    7.8427 C.3     1  UNL1        0.0939
     36 C          59.9685   87.4578    7.6905 C.2     1  UNL1        0.2261
     37 O          58.9268   86.6134    8.3627 O.2     1  UNL1       -0.2749
     38 N          59.5570   88.6416    6.8661 N.am    1  UNL1       -0.2791
     39 C          60.4805   89.5732    6.1386 C.3     1  UNL1        0.0938
     40 C          59.6441   90.6088    5.4474 C.3     1  UNL1        0.0288
     41 C          58.2036   90.3172    5.7476 C.3     1  UNL1        0.0581
     42 C          58.1499   89.1013    6.6244 C.3     1  UNL1        0.0989
     43 C          57.0241   91.1034    5.2572 C.2     1  UNL1        0.0517
     44 O          55.6319   90.6373    5.5643 O.co2   1  UNL1       -0.5491
     45 O          57.2369   92.3558    4.4595 O.co2   1  UNL1       -0.5491
@<TRIPOS>UNITY_ATOM_ATTR
44 1
charge -1
@<TRIPOS>BOND
     1    31    32    1
     2    32    33    1
     3    32    34    1
     4    32    28    1
     5    28    29    2
     6    28    30    2
     7    28    27    1
     8    23    27    1
     9    23    24    1
    10    24    25    1
    11    25    26    1
    12    23     1    1
    13     1     2   am
    14     2     3    2
    15     2     4    1
    16     4     5    1
    17     4    35    1
    18    35    36    1
    19    36    37    2
    20    36    38   am
    21    38    39    1
    22    39    40    1
    23    40    41    1
    24    41    43    1
    25    43    44   ar
    26    43    45   ar
    27    41    42    1
    28     4     6    1
    29     6     7    1
    30     7     9    1
    31     9    10   ar
    32    10    11   ar
    33    11    12   ar
    34    12    13   ar
    35    13    14    1
    36    13    15   ar
    37     7     8    1
    38     8    16    1
    39    16    17   ar
    40    17    18   ar
    41    18    19   ar
    42    19    20    1
    43    19    21   ar
    44    21    22   ar
    45    26    24    1
    46     8     1    1
    47    22    16   ar
    48    42    38    1
    49    15     9   ar
@<TRIPOS>MOLECULE
*****
 45 49 0 0 0
SMALL
GASTEIGER

@<TRIPOS>ATOM
      1 N          63.4826   86.3587   13.2020 N.am    1  UNL1       -0.2770
      2 C          63.4147   87.8238   13.5164 C.2     1  UNL1        0.2254
      3 O          63.8459   88.3225   14.8637 O.2     1  UNL1       -0.2749
      4 C          62.9156   88.7901   12.4834 C.3     1  UNL1        0.0780
      5 C          62.5184   90.0859   11.8408 C.3     1  UNL1        0.0096
      6 C          62.4844   88.2913   11.1361 C.3     1  UNL1        0.0154
      7 C          62.5523   86.8262   10.8217 C.3     1  UNL1        0.0452
      8 C          63.0514   85.8599   11.8547 C.3     1  UNL1        0.1018
      9 C          62.1211   86.3275    9.4744 C.ar    1  UNL1       -0.0197
     10 C          63.0829   85.5617    8.6150 C.ar    1  UNL1       -0.0042
     11 C          62.6517   85.0630    7.2677 C.ar    1  UNL1        0.0005
     12 C          61.2587   85.3300    6.7797 C.ar    1  UNL1        0.0114
     13 C          60.2969   86.0957    7.6390 C.ar    1  UNL1        0.0574
     14 CL         58.9038   86.3627    7.1511 Cl      1  UNL1       -0.0823
     15 C          60.7281   86.5945    8.9864 C.ar    1  UNL1        0.0072
     16 C          63.1193   84.3947   11.5403 C.ar    1  UNL1       -0.0039
     17 C          64.4499   83.7306   11.3444 C.ar    1  UNL1       -0.0018
     18 C          64.5179   82.2655   11.0301 C.ar    1  UNL1        0.0111
     19 C          63.2551   81.4645   10.9117 C.ar    1  UNL1        0.0577
     20 CL         63.3231   79.9994   10.5974 Cl      1  UNL1       -0.0822
     21 C          61.9245   82.1286   11.1076 C.ar    1  UNL1        0.0111
     22 C          61.8566   83.5938   11.4220 C.ar    1  UNL1       -0.0018
     23 C          63.9817   85.3923   14.2350 C.3     1  UNL1        0.0991
     24 C          65.4539   85.2631   14.4919 C.3     1  UNL1        0.0200
     25 C          66.7561   84.5562   14.2587 C.3     1  UNL1        0.0018
     26 C          66.7014   85.7463   15.1702 C.3     1  UNL1        0.0018
     27 C          63.0087   84.5551   15.0110 C.3     1  UNL1        0.1703
     28 S          62.8814   83.0891   14.7197 S.O2    1  UNL1       -0.0115
     29 O          61.4881   83.3111   14.2105 O.2     1  UNL1       -0.1730
     30 O          64.2748   82.8671   15.2288 O.2     1  UNL1       -0.1730
     31 C          61.2601   81.7414   14.4858 C.3     1  UNL1        0.0236
     32 C          62.7543   81.6232   14.4284 C.3     1  UNL1        0.1108
     33 C          64.2485   81.5050   14.3710 C.3     1  UNL1        0.0236
     34 C          62.6271   80.1573   14.1371 C.3     1  UNL1        0.0236
     35 C          63.2088   89.7390   13.6075 C.3     1  UNL1        0.0939
     36 C          64.0155   90.9776   13.3525 C.2     1  UNL1        0.2261
     37 O          63.5301   91.9991   12.3671 O.2     1  UNL1       -0.2749
     38 N          65.3077   91.1947   14.0828 N.am    1  UNL1       -0.2791
     39 C          65.9170   90.2667   15.0914 C.3     1  UNL1        0.0938
     40 C          67.2032   90.8764   15.5646 C.3     1  UNL1        0.0288
     41 C          67.3887   92.1813   14.8485 C.3     1  UNL1        0.0581
     42 C          66.2172   92.3780   13.9326 C.3     1  UNL1        0.0989
     43 C          68.5431   93.1240   15.0184 C.2     1  UNL1        0.0517
     44 O          69.8636   92.8159   14.3772 O.co2   1  UNL1       -0.5491
     45 O          68.3768   94.3747   15.8296 O.co2   1  UNL1       -0.5491
@<TRIPOS>UNITY_ATOM_ATTR
44 1
charge -1
@<TRIPOS>BOND
     1    31    32    1
     2    32    33    1
     3    32    34    1
     4    32    28    1
     5    28    29    2
     6    28    30    2
     7    28    27    1
     8    23    27    1
     9    23    24    1
    10    24    25    1
    11    25    26    1
    12    23     1    1
    13     1     2   am
    14     2     3    2
    15     2     4    1
    16     4     5    1
    17     4    35    1
    18    35    36    1
    19    36    37    2
    20    36    38   am
    21    38    39    1
    22    39    40    1
    23    40    41    1
    24    41    43    1
    25    43    44   ar
    26    43    45   ar
    27    41    42    1
    28     4     6    1
    29     6     7    1
    30     7     9    1
    31     9    10   ar
    32    10    11   ar
    33    11    12   ar
    34    12    13   ar
    35    13    14    1
    36    13    15   ar
    37     7     8    1
    38     8    16    1
    39    16    17   ar
    40    17    18   ar
    41    18    19   ar
    42    19    20    1
    43    19    21   ar
    44    21    22   ar
    45    26    24    1
    46     8     1    1
    47    22    16   ar
    48    42    38    1
    49    15     9   ar
