@<TRIPOS>MOLECULE
*****
 22 25 0 0 0
SMALL
GASTEIGER

@<TRIPOS>ATOM
      1 C          63.4077   85.5142   13.2781 C.ar    1  UNL1       -0.0003
      2 C          64.1730   86.0052   14.4710 C.ar    1  UNL1       -0.0000
      3 C          64.4420   87.4714   14.6380 C.ar    1  UNL1       -0.0003
      4 C          63.9456   88.4466   13.6120 C.ar    1  UNL1       -0.0039
      5 C          63.1803   87.9556   12.4191 C.ar    1  UNL1       -0.0178
      6 C          62.9113   86.4894   12.2521 C.ar    1  UNL1       -0.0039
      7 C          62.8189   89.1444   11.5788 C.3     1  UNL1        0.0523
      8 C          63.3609   90.3702   12.2523 C.2     1  UNL1       -0.0214
      9 C          64.0573   89.9390   13.5090 C.2     1  UNL1       -0.0041
     10 F          62.3317   79.6494   12.6101 F       1  UNL1       -0.2042
     11 C          62.6006   81.1156   12.7772 C.ar    1  UNL1        0.1401
     12 C          62.3812   81.7715   14.1081 C.ar    1  UNL1        0.0296
     13 C          62.6502   83.2378   14.2751 C.ar    1  UNL1        0.0023
     14 C          63.1386   84.0480   13.1111 C.ar    1  UNL1        0.0001
     15 C          63.3581   83.3920   11.7801 C.ar    1  UNL1        0.0023
     16 C          63.0891   81.9259   11.6131 C.ar    1  UNL1        0.0296
     17 C          64.7446   90.8415   14.4903 C.ar    1  UNL1        0.0028
     18 C          64.0552   91.2264   15.7656 C.ar    1  UNL1        0.0207
     19 C          64.7426   92.1289   16.7468 C.ar    1  UNL1        0.0989
     20 N          66.1194   92.6466   16.4528 N.ar    1  UNL1       -0.2423
     21 C          66.8089   92.2617   15.1774 C.ar    1  UNL1        0.0989
     22 C          66.1214   91.3591   14.1962 C.ar    1  UNL1        0.0207
@<TRIPOS>BOND
     1    10    11    1
     2    11    12   ar
     3    12    13   ar
     4    13    14   ar
     5    14     1    1
     6     1     2   ar
     7     2     3   ar
     8     3     4   ar
     9     4     5   ar
    10     5     6   ar
    11     5     7    1
    12     7     8    1
    13     8     9    2
    14     9    17    1
    15    17    18   ar
    16    18    19   ar
    17    19    20   ar
    18    20    21   ar
    19    21    22   ar
    20    14    15   ar
    21    15    16   ar
    22    16    11   ar
    23     6     1   ar
    24    22    17   ar
    25     9     4    1
@<TRIPOS>MOLECULE
*****
 22 25 0 0 0
SMALL
GASTEIGER

@<TRIPOS>ATOM
      1 C          62.6502   89.7143   10.7263 C.ar    1  UNL1       -0.0003
      2 C          63.1160   89.3212   12.0969 C.ar    1  UNL1       -0.0000
      3 C          64.1270   90.1643   12.8159 C.ar    1  UNL1       -0.0003
      4 C          64.6722   91.4005   12.1643 C.ar    1  UNL1       -0.0039
      5 C          64.2064   91.7936   10.7937 C.ar    1  UNL1       -0.0178
      6 C          63.1955   90.9505   10.0748 C.ar    1  UNL1       -0.0039
      7 C          64.9170   93.0568   10.4073 C.3     1  UNL1        0.0523
      8 C          65.8220   93.4444   11.5390 C.2     1  UNL1       -0.0214
      9 C          65.6707   92.4208   12.6250 C.2     1  UNL1       -0.0041
     10 F          58.6062   86.3417    7.8501 F       1  UNL1       -0.2042
     11 C          59.6172   87.1849    8.5692 C.ar    1  UNL1        0.1401
     12 C          59.6158   88.6741    8.3895 C.ar    1  UNL1        0.0296
     13 C          60.6268   89.5172    9.1086 C.ar    1  UNL1        0.0023
     14 C          61.6392   88.8711   10.0072 C.ar    1  UNL1        0.0001
     15 C          61.6406   87.3819   10.1869 C.ar    1  UNL1        0.0023
     16 C          60.6296   86.5388    9.4679 C.ar    1  UNL1        0.0296
     17 C          66.3913   92.4179   13.9405 C.ar    1  UNL1        0.0028
     18 C          67.8837   92.2717   13.9779 C.ar    1  UNL1        0.0207
     19 C          68.6042   92.2688   15.2934 C.ar    1  UNL1        0.0989
     20 N          67.8325   92.4121   16.5716 N.ar    1  UNL1       -0.2423
     21 C          66.3401   92.5583   16.5343 C.ar    1  UNL1        0.0989
     22 C          65.6195   92.5612   15.2187 C.ar    1  UNL1        0.0207
@<TRIPOS>BOND
     1    10    11    1
     2    11    12   ar
     3    12    13   ar
     4    13    14   ar
     5    14     1    1
     6     1     2   ar
     7     2     3   ar
     8     3     4   ar
     9     4     5   ar
    10     5     6   ar
    11     5     7    1
    12     7     8    1
    13     8     9    2
    14     9    17    1
    15    17    18   ar
    16    18    19   ar
    17    19    20   ar
    18    20    21   ar
    19    21    22   ar
    20    14    15   ar
    21    15    16   ar
    22    16    11   ar
    23     6     1   ar
    24    22    17   ar
    25     9     4    1
@<TRIPOS>MOLECULE
*****
 22 25 0 0 0
SMALL
GASTEIGER

@<TRIPOS>ATOM
      1 C          62.5560   86.7145   10.4983 C.ar    1  UNL1       -0.0003
      2 C          62.6142   88.2061   10.6457 C.ar    1  UNL1       -0.0000
      3 C          63.1018   88.8146   11.9271 C.ar    1  UNL1       -0.0003
      4 C          63.5312   87.9315   13.0610 C.ar    1  UNL1       -0.0039
      5 C          63.4729   86.4399   12.9136 C.ar    1  UNL1       -0.0178
      6 C          62.9853   85.8314   11.6322 C.ar    1  UNL1       -0.0039
      7 C          63.9585   85.8283   14.1942 C.3     1  UNL1        0.0523
      8 C          64.3168   86.9418   15.1332 C.2     1  UNL1       -0.0214
      9 C          64.0527   88.2417   14.4328 C.2     1  UNL1       -0.0041
     10 F          60.6056   84.2803    5.3727 F       1  UNL1       -0.2042
     11 C          61.0931   84.8888    6.6541 C.ar    1  UNL1        0.1401
     12 C          60.1577   85.6960    7.5047 C.ar    1  UNL1        0.0296
     13 C          60.6453   86.3045    8.7861 C.ar    1  UNL1        0.0023
     14 C          62.0683   86.1060    9.2169 C.ar    1  UNL1        0.0001
     15 C          63.0038   85.2988    8.3663 C.ar    1  UNL1        0.0023
     16 C          62.5162   84.6903    7.0849 C.ar    1  UNL1        0.0296
     17 C          64.2717   89.6113   15.0040 C.ar    1  UNL1        0.0028
     18 C          63.4591   90.0735   16.1770 C.ar    1  UNL1        0.0207
     19 C          63.6781   91.4431   16.7481 C.ar    1  UNL1        0.0989
     20 N          64.7097   92.3505   16.1461 N.ar    1  UNL1       -0.2423
     21 C          65.5223   91.8884   14.9730 C.ar    1  UNL1        0.0989
     22 C          65.3033   90.5188   14.4020 C.ar    1  UNL1        0.0207
@<TRIPOS>BOND
     1    10    11    1
     2    11    12   ar
     3    12    13   ar
     4    13    14   ar
     5    14     1    1
     6     1     2   ar
     7     2     3   ar
     8     3     4   ar
     9     4     5   ar
    10     5     6   ar
    11     5     7    1
    12     7     8    1
    13     8     9    2
    14     9    17    1
    15    17    18   ar
    16    18    19   ar
    17    19    20   ar
    18    20    21   ar
    19    21    22   ar
    20    14    15   ar
    21    15    16   ar
    22    16    11   ar
    23     6     1   ar
    24    22    17   ar
    25     9     4    1
@<TRIPOS>MOLECULE
*****
 22 25 0 0 0
SMALL
GASTEIGER

@<TRIPOS>ATOM
      1 C          64.2774   90.6065   12.7347 C.ar    1  UNL1       -0.0003
      2 C          63.5223   91.1061   11.5388 C.ar    1  UNL1       -0.0000
      3 C          62.6324   90.1743   10.7709 C.ar    1  UNL1       -0.0003
      4 C          62.4976   88.7430   11.1988 C.ar    1  UNL1       -0.0039
      5 C          63.2527   88.2434   12.3947 C.ar    1  UNL1       -0.0178
      6 C          64.1426   89.1752   13.1626 C.ar    1  UNL1       -0.0039
      7 C          62.9233   86.7915   12.5775 C.3     1  UNL1        0.0523
      8 C          61.9647   86.3937   11.4945 C.2     1  UNL1       -0.0214
      9 C          61.7015   87.5997   10.6424 C.2     1  UNL1       -0.0041
     10 F          67.8371   94.3335   15.8069 F       1  UNL1       -0.2042
     11 C          66.9472   93.4018   15.0389 C.ar    1  UNL1        0.1401
     12 C          66.6522   93.6683   13.5925 C.ar    1  UNL1        0.0296
     13 C          65.7623   92.7365   12.8245 C.ar    1  UNL1        0.0023
     14 C          65.1673   91.5383   13.5028 C.ar    1  UNL1        0.0001
     15 C          65.4622   91.2718   14.9491 C.ar    1  UNL1        0.0023
     16 C          66.3521   92.2035   15.7172 C.ar    1  UNL1        0.0296
     17 C          60.8005   87.6533    9.4443 C.ar    1  UNL1        0.0028
     18 C          60.3156   86.3819    8.8132 C.ar    1  UNL1        0.0207
     19 C          59.4147   86.4355    7.6151 C.ar    1  UNL1        0.0989
     20 N          58.9986   87.7604    7.0482 N.ar    1  UNL1       -0.2423
     21 C          59.4835   89.0319    7.6794 C.ar    1  UNL1        0.0989
     22 C          60.3845   88.9782    8.8775 C.ar    1  UNL1        0.0207
@<TRIPOS>BOND
     1    10    11    1
     2    11    12   ar
     3    12    13   ar
     4    13    14   ar
     5    14     1    1
     6     1     2   ar
     7     2     3   ar
     8     3     4   ar
     9     4     5   ar
    10     5     6   ar
    11     5     7    1
    12     7     8    1
    13     8     9    2
    14     9    17    1
    15    17    18   ar
    16    18    19   ar
    17    19    20   ar
    18    20    21   ar
    19    21    22   ar
    20    14    15   ar
    21    15    16   ar
    22    16    11   ar
    23     6     1   ar
    24    22    17   ar
    25     9     4    1
@<TRIPOS>MOLECULE
*****
 22 25 0 0 0
SMALL
GASTEIGER

@<TRIPOS>ATOM
      1 C          62.3074   88.9381   10.7800 C.ar    1  UNL1       -0.0003
      2 C          62.8808   90.2985   10.5147 C.ar    1  UNL1       -0.0000
      3 C          63.8001   90.9332   11.5157 C.ar    1  UNL1       -0.0003
      4 C          64.1460   90.2074   12.7820 C.ar    1  UNL1       -0.0039
      5 C          63.5726   88.8470   13.0474 C.ar    1  UNL1       -0.0178
      6 C          62.6533   88.2123   12.0464 C.ar    1  UNL1       -0.0039
      7 C          64.0902   88.3766   14.3743 C.3     1  UNL1        0.0523
      8 C          64.9835   89.4464   14.9291 C.2     1  UNL1       -0.0214
      9 C          65.0180   90.5779   13.9450 C.2     1  UNL1       -0.0041
     10 F          58.6300   86.3991    6.7762 F       1  UNL1       -0.2042
     11 C          59.5493   87.0339    7.7771 C.ar    1  UNL1        0.1401
     12 C          59.5315   88.5207    7.9746 C.ar    1  UNL1        0.0296
     13 C          60.4508   89.1555    8.9756 C.ar    1  UNL1        0.0023
     14 C          61.3880   88.3034    9.7790 C.ar    1  UNL1        0.0001
     15 C          61.4058   86.8165    9.5816 C.ar    1  UNL1        0.0023
     16 C          60.4865   86.1818    8.5806 C.ar    1  UNL1        0.0296
     17 C          65.7891   91.8555   14.0971 C.ar    1  UNL1        0.0028
     18 C          66.5917   92.1037   15.3398 C.ar    1  UNL1        0.0207
     19 C          67.3627   93.3813   15.4918 C.ar    1  UNL1        0.0989
     20 N          67.3311   94.4107   14.4013 N.ar    1  UNL1       -0.2423
     21 C          66.5285   94.1625   13.1586 C.ar    1  UNL1        0.0989
     22 C          65.7575   92.8849   13.0066 C.ar    1  UNL1        0.0207
@<TRIPOS>BOND
     1    10    11    1
     2    11    12   ar
     3    12    13   ar
     4    13    14   ar
     5    14     1    1
     6     1     2   ar
     7     2     3   ar
     8     3     4   ar
     9     4     5   ar
    10     5     6   ar
    11     5     7    1
    12     7     8    1
    13     8     9    2
    14     9    17    1
    15    17    18   ar
    16    18    19   ar
    17    19    20   ar
    18    20    21   ar
    19    21    22   ar
    20    14    15   ar
    21    15    16   ar
    22    16    11   ar
    23     6     1   ar
    24    22    17   ar
    25     9     4    1
@<TRIPOS>MOLECULE
*****
 22 25 0 0 0
SMALL
GASTEIGER

@<TRIPOS>ATOM
      1 C          63.1121   83.9165   13.8702 C.ar    1  UNL1       -0.0003
      2 C          63.6386   85.0974   13.1098 C.ar    1  UNL1       -0.0000
      3 C          63.7679   86.4290   13.7880 C.ar    1  UNL1       -0.0003
      4 C          63.3706   86.5798   15.2266 C.ar    1  UNL1       -0.0039
      5 C          62.8440   85.3989   15.9869 C.ar    1  UNL1       -0.0178
      6 C          62.7147   84.0672   15.3088 C.ar    1  UNL1       -0.0039
      7 C          62.5341   85.8480   17.3841 C.3     1  UNL1        0.0523
      8 C          62.8691   87.3065   17.4873 C.2     1  UNL1       -0.0214
      9 C          63.3861   87.7588   16.1539 C.2     1  UNL1       -0.0041
     10 F          62.5951   78.5897   11.1575 F       1  UNL1       -0.2042
     11 C          62.7243   79.9214   11.8357 C.ar    1  UNL1        0.1401
     12 C          62.3695   80.0618   13.2863 C.ar    1  UNL1        0.0296
     13 C          62.4987   81.3936   13.9645 C.ar    1  UNL1        0.0023
     14 C          62.9828   82.5847   13.1920 C.ar    1  UNL1        0.0001
     15 C          63.3377   82.4443   11.7414 C.ar    1  UNL1        0.0023
     16 C          63.2084   81.1126   11.0632 C.ar    1  UNL1        0.0296
     17 C          63.8391   89.1463   15.8083 C.ar    1  UNL1        0.0028
     18 C          64.6082   89.3912   14.5440 C.ar    1  UNL1        0.0207
     19 C          65.0611   90.7788   14.1986 C.ar    1  UNL1        0.0989
     20 N          64.7450   91.9215   15.1174 N.ar    1  UNL1       -0.2423
     21 C          63.9758   91.6767   16.3817 C.ar    1  UNL1        0.0989
     22 C          63.5229   90.2891   16.7271 C.ar    1  UNL1        0.0207
@<TRIPOS>BOND
     1    10    11    1
     2    11    12   ar
     3    12    13   ar
     4    13    14   ar
     5    14     1    1
     6     1     2   ar
     7     2     3   ar
     8     3     4   ar
     9     4     5   ar
    10     5     6   ar
    11     5     7    1
    12     7     8    1
    13     8     9    2
    14     9    17    1
    15    17    18   ar
    16    18    19   ar
    17    19    20   ar
    18    20    21   ar
    19    21    22   ar
    20    14    15   ar
    21    15    16   ar
    22    16    11   ar
    23     6     1   ar
    24    22    17   ar
    25     9     4    1
@<TRIPOS>MOLECULE
*****
 22 25 0 0 0
SMALL
GASTEIGER

@<TRIPOS>ATOM
      1 C          63.9251   88.2129   13.9376 C.ar    1  UNL1       -0.0003
      2 C          64.1892   86.8909   14.5953 C.ar    1  UNL1       -0.0000
      3 C          63.7878   85.6187   13.9096 C.ar    1  UNL1       -0.0003
      4 C          63.1223   85.6684   12.5663 C.ar    1  UNL1       -0.0039
      5 C          62.8582   86.9904   11.9086 C.ar    1  UNL1       -0.0178
      6 C          63.2596   88.2626   12.5942 C.ar    1  UNL1       -0.0039
      7 C          62.1907   86.7275   10.5912 C.3     1  UNL1        0.0523
      8 C          62.0423   85.2431   10.4347 C.2     1  UNL1       -0.0214
      9 C          62.6180   84.5885   11.6554 C.2     1  UNL1       -0.0041
     10 F          65.5306   93.3022   16.6803 F       1  UNL1       -0.2042
     11 C          65.1293   92.0299   15.9946 C.ar    1  UNL1        0.1401
     12 C          65.8948   91.5493   14.7975 C.ar    1  UNL1        0.0296
     13 C          65.4934   90.2770   14.1118 C.ar    1  UNL1        0.0023
     14 C          64.3265   89.4853   14.6233 C.ar    1  UNL1        0.0001
     15 C          63.5610   89.9658   15.8204 C.ar    1  UNL1        0.0023
     16 C          63.9624   91.2381   16.5060 C.ar    1  UNL1        0.0296
     17 C          62.6789   83.1131   11.9189 C.ar    1  UNL1        0.0028
     18 C          63.1154   82.1746   10.8332 C.ar    1  UNL1        0.0207
     19 C          63.1762   80.6993   11.0968 C.ar    1  UNL1        0.0989
     20 N          62.8005   80.1623   12.4461 N.ar    1  UNL1       -0.2423
     21 C          62.3640   81.1008   13.5318 C.ar    1  UNL1        0.0989
     22 C          62.3032   82.5761   13.2682 C.ar    1  UNL1        0.0207
@<TRIPOS>BOND
     1    10    11    1
     2    11    12   ar
     3    12    13   ar
     4    13    14   ar
     5    14     1    1
     6     1     2   ar
     7     2     3   ar
     8     3     4   ar
     9     4     5   ar
    10     5     6   ar
    11     5     7    1
    12     7     8    1
    13     8     9    2
    14     9    17    1
    15    17    18   ar
    16    18    19   ar
    17    19    20   ar
    18    20    21   ar
    19    21    22   ar
    20    14    15   ar
    21    15    16   ar
    22    16    11   ar
    23     6     1   ar
    24    22    17   ar
    25     9     4    1
@<TRIPOS>MOLECULE
*****
 22 25 0 0 0
SMALL
GASTEIGER

@<TRIPOS>ATOM
      1 C          63.2596   84.7628   14.4457 C.ar    1  UNL1       -0.0003
      2 C          63.8121   85.6181   13.3443 C.ar    1  UNL1       -0.0000
      3 C          64.0518   87.0802   13.5786 C.ar    1  UNL1       -0.0003
      4 C          63.7391   87.6869   14.9143 C.ar    1  UNL1       -0.0039
      5 C          63.1866   86.8316   16.0157 C.ar    1  UNL1       -0.0178
      6 C          62.9469   85.3695   15.7814 C.ar    1  UNL1       -0.0039
      7 C          62.9759   87.7032   17.2181 C.3     1  UNL1        0.0523
      8 C          63.3981   89.0973   16.8598 C.2     1  UNL1       -0.0214
      9 C          63.8698   89.0872   15.4360 C.2     1  UNL1       -0.0041
     10 F          62.3005   78.9145   13.5087 F       1  UNL1       -0.2042
     11 C          62.5403   80.3765   13.7429 C.ar    1  UNL1        0.1401
     12 C          61.4563   81.2292   14.3329 C.ar    1  UNL1        0.0296
     13 C          61.6961   82.6913   14.5671 C.ar    1  UNL1        0.0023
     14 C          63.0198   83.3007   14.2114 C.ar    1  UNL1        0.0001
     15 C          64.1037   82.4480   13.6215 C.ar    1  UNL1        0.0023
     16 C          63.8640   80.9860   13.3872 C.ar    1  UNL1        0.0296
     17 C          64.3823   90.2697   14.6685 C.ar    1  UNL1        0.0028
     18 C          65.3898   91.1894   15.2924 C.ar    1  UNL1        0.0207
     19 C          65.9022   92.3719   14.5249 C.ar    1  UNL1        0.0989
     20 N          65.4071   92.6348   13.1336 N.ar    1  UNL1       -0.2423
     21 C          64.3995   91.7152   12.5097 C.ar    1  UNL1        0.0989
     22 C          63.8872   90.5327   13.2772 C.ar    1  UNL1        0.0207
@<TRIPOS>BOND
     1    10    11    1
     2    11    12   ar
     3    12    13   ar
     4    13    14   ar
     5    14     1    1
     6     1     2   ar
     7     2     3   ar
     8     3     4   ar
     9     4     5   ar
    10     5     6   ar
    11     5     7    1
    12     7     8    1
    13     8     9    2
    14     9    17    1
    15    17    18   ar
    16    18    19   ar
    17    19    20   ar
    18    20    21   ar
    19    21    22   ar
    20    14    15   ar
    21    15    16   ar
    22    16    11   ar
    23     6     1   ar
    24    22    17   ar
    25     9     4    1
@<TRIPOS>MOLECULE
*****
 22 25 0 0 0
SMALL
GASTEIGER

@<TRIPOS>ATOM
      1 C          63.2828   83.3366   12.4487 C.ar    1  UNL1       -0.0003
      2 C          63.1075   84.4966   11.5140 C.ar    1  UNL1       -0.0000
      3 C          63.3110   85.8973   12.0106 C.ar    1  UNL1       -0.0003
      4 C          63.6898   86.1380   13.4419 C.ar    1  UNL1       -0.0039
      5 C          63.8651   84.9780   14.3766 C.ar    1  UNL1       -0.0178
      6 C          63.6616   83.5773   13.8800 C.ar    1  UNL1       -0.0039
      7 C          64.2391   85.5208   15.7240 C.3     1  UNL1        0.0523
      8 C          64.2949   87.0163   15.6221 C.2     1  UNL1       -0.0214
      9 C          63.9554   87.3978   14.2117 C.2     1  UNL1       -0.0041
     10 F          62.4687   77.7337   10.4625 F       1  UNL1       -0.2042
     11 C          62.6722   79.1344   10.9590 C.ar    1  UNL1        0.1401
     12 C          63.0777   80.2173   10.0036 C.ar    1  UNL1        0.0296
     13 C          63.2812   81.6181   10.5002 C.ar    1  UNL1        0.0023
     14 C          63.0793   81.9359   11.9521 C.ar    1  UNL1        0.0001
     15 C          62.6738   80.8529   12.9075 C.ar    1  UNL1        0.0023
     16 C          62.4703   79.4523   12.4110 C.ar    1  UNL1        0.0296
     17 C          63.8926   88.7939   13.6667 C.ar    1  UNL1        0.0028
     18 C          63.0803   89.0840   12.4394 C.ar    1  UNL1        0.0207
     19 C          63.0176   90.4801   11.8945 C.ar    1  UNL1        0.0989
     20 N          63.7669   91.5860   12.5767 N.ar    1  UNL1       -0.2423
     21 C          64.5792   91.2958   13.8040 C.ar    1  UNL1        0.0989
     22 C          64.6419   89.8997   14.3489 C.ar    1  UNL1        0.0207
@<TRIPOS>BOND
     1    10    11    1
     2    11    12   ar
     3    12    13   ar
     4    13    14   ar
     5    14     1    1
     6     1     2   ar
     7     2     3   ar
     8     3     4   ar
     9     4     5   ar
    10     5     6   ar
    11     5     7    1
    12     7     8    1
    13     8     9    2
    14     9    17    1
    15    17    18   ar
    16    18    19   ar
    17    19    20   ar
    18    20    21   ar
    19    21    22   ar
    20    14    15   ar
    21    15    16   ar
    22    16    11   ar
    23     6     1   ar
    24    22    17   ar
    25     9     4    1
