@<TRIPOS>MOLECULE
*****
 26 30 0 0 0
SMALL
GASTEIGER

@<TRIPOS>ATOM
      1 C          61.6204   89.4223    9.5699 C.3     1  UNL1        0.0899
      2 N          62.2409   88.6548   10.6995 N.3     1  UNL1       -0.2674
      3 C          61.8406   87.2162   10.5575 C.3     1  UNL1        0.0771
      4 C          61.9767   85.8527   11.1678 C.3     1  UNL1        0.0439
      5 C          62.5972   85.0853   12.2974 C.ar    1  UNL1       -0.0148
      6 C          62.0429   83.7487   11.9019 C.ar    1  UNL1        0.0361
      7 C          62.3566   82.5338   12.7238 C.ar    1  UNL1        0.1761
      8 C          63.2245   82.6554   13.9412 C.ar    1  UNL1        0.1765
      9 C          63.7788   83.9919   14.3366 C.ar    1  UNL1        0.0427
     10 C          63.4651   85.2069   13.5146 C.ar    1  UNL1        0.0343
     11 C          64.2490   86.1712   14.3548 C.2     1  UNL1        0.1772
     12 O          64.8695   85.4036   15.4844 O.2     1  UNL1       -0.2910
     13 C          64.6493   87.6098   14.4968 C.3     1  UNL1        0.0952
     14 C          64.5132   88.9732   13.8864 C.ar    1  UNL1       -0.0139
     15 C          65.3626   89.6835   14.8984 C.ar    1  UNL1        0.0361
     16 C          65.5915   91.1612   14.7808 C.ar    1  UNL1        0.1761
     17 C          64.9710   91.9287   13.6512 C.ar    1  UNL1        0.1761
     18 C          64.1216   91.2184   12.6393 C.ar    1  UNL1        0.0370
     19 C          63.8927   89.7407   12.7569 C.ar    1  UNL1       -0.0065
     20 C          63.0248   89.6191   11.5396 C.3     1  UNL1        0.0990
     21 O          65.3713   93.3673   13.7932 O.3     1  UNL1       -0.4346
     22 C          66.2392   93.4890   15.0106 C.3     1  UNL1        0.4294
     23 O          66.3753   92.1255   15.6209 O.3     1  UNL1       -0.4346
     24 O          63.3606   81.2919   14.5515 O.3     1  UNL1       -0.4346
     25 C          62.5768   80.3277   13.7114 C.3     1  UNL1        0.4294
     26 O          61.9562   81.0952   12.5818 O.3     1  UNL1       -0.4346
@<TRIPOS>BOND
     1     1     2    1
     2     2     3    1
     3     3     4    1
     4     4     5    1
     5     5     6   ar
     6     6     7   ar
     7     7     8   ar
     8     8     9   ar
     9     9    10   ar
    10    10    11    1
    11    11    12    2
    12    11    13    1
    13    13    14    1
    14    14    15   ar
    15    15    16   ar
    16    16    17   ar
    17    17    18   ar
    18    18    19   ar
    19    19    20    1
    20    17    21    1
    21    21    22    1
    22    22    23    1
    23     8    24    1
    24    24    25    1
    25    25    26    1
    26    20     2    1
    27    10     5   ar
    28    19    14   ar
    29    26     7    1
    30    23    16    1
@<TRIPOS>MOLECULE
*****
 26 30 0 0 0
SMALL
GASTEIGER

@<TRIPOS>ATOM
      1 C          63.1565   84.9674   13.9108 C.3     1  UNL1        0.0899
      2 N          63.2852   86.3714   13.3989 N.3     1  UNL1       -0.2674
      3 C          64.2198   87.1125   14.3084 C.3     1  UNL1        0.0771
      4 C          64.8770   88.4384   14.5542 C.3     1  UNL1        0.0439
      5 C          65.0057   89.8425   14.0423 C.ar    1  UNL1       -0.0148
      6 C          65.9548   90.3105   15.1053 C.ar    1  UNL1        0.0361
      7 C          66.4551   91.7245   15.0943 C.ar    1  UNL1        0.1761
      8 C          66.0062   92.6706   14.0203 C.ar    1  UNL1        0.1765
      9 C          65.0571   92.2026   12.9573 C.ar    1  UNL1        0.0427
     10 C          64.5568   90.7884   12.9683 C.ar    1  UNL1        0.0343
     11 C          63.7017   90.9150   11.7424 C.2     1  UNL1        0.1772
     12 O          63.8305   92.3191   11.2305 O.2     1  UNL1       -0.2910
     13 C          62.7671   90.1739   10.8328 C.3     1  UNL1        0.0952
     14 C          62.1100   88.8481   10.5871 C.ar    1  UNL1       -0.0139
     15 C          61.3595   89.2704    9.3588 C.ar    1  UNL1        0.0361
     16 C          60.4803   88.2886    8.6426 C.ar    1  UNL1        0.1761
     17 C          60.3516   86.8845    9.1545 C.ar    1  UNL1        0.1761
     18 C          61.1021   86.4623   10.3827 C.ar    1  UNL1        0.0370
     19 C          61.9812   87.4441   11.0990 C.ar    1  UNL1       -0.0065
     20 C          62.4301   86.4981   12.1730 C.3     1  UNL1        0.0990
     21 O          59.4170   86.1434    8.2450 O.3     1  UNL1       -0.4346
     22 C          58.9681   87.0894    7.1709 C.3     1  UNL1        0.4294
     23 O          59.6253   88.4152    7.4167 O.3     1  UNL1       -0.4346
     24 O          66.6634   93.9964   14.2660 O.3     1  UNL1       -0.4346
     25 C          67.5184   93.8697   15.4919 C.3     1  UNL1        0.4294
     26 O          67.3897   92.4657   16.0038 O.3     1  UNL1       -0.4346
@<TRIPOS>BOND
     1     1     2    1
     2     2     3    1
     3     3     4    1
     4     4     5    1
     5     5     6   ar
     6     6     7   ar
     7     7     8   ar
     8     8     9   ar
     9     9    10   ar
    10    10    11    1
    11    11    12    2
    12    11    13    1
    13    13    14    1
    14    14    15   ar
    15    15    16   ar
    16    16    17   ar
    17    17    18   ar
    18    18    19   ar
    19    19    20    1
    20    17    21    1
    21    21    22    1
    22    22    23    1
    23     8    24    1
    24    24    25    1
    25    25    26    1
    26    20     2    1
    27    10     5   ar
    28    19    14   ar
    29    26     7    1
    30    23    16    1
@<TRIPOS>MOLECULE
*****
 26 30 0 0 0
SMALL
GASTEIGER

@<TRIPOS>ATOM
      1 C          64.5268   86.1275   15.3010 C.3     1  UNL1        0.0899
      2 N          64.0962   87.0942   14.2379 N.3     1  UNL1       -0.2674
      3 C          63.1531   86.3794   13.3160 C.3     1  UNL1        0.0771
      4 C          62.3041   86.5351   12.0892 C.3     1  UNL1        0.0439
      5 C          61.8735   87.5017   11.0260 C.ar    1  UNL1       -0.0148
      6 C          60.9815   86.5430   10.2945 C.ar    1  UNL1        0.0361
      7 C          60.2417   86.9926    9.0696 C.ar    1  UNL1        0.1761
      8 C          60.3940   88.4009    8.5761 C.ar    1  UNL1        0.1765
      9 C          61.2860   89.3596    9.3076 C.ar    1  UNL1        0.0427
     10 C          62.0258   88.9099   10.5327 C.ar    1  UNL1        0.0343
     11 C          62.7028   90.2221   10.7975 C.2     1  UNL1        0.1772
     12 O          62.2722   91.1887    9.7343 O.2     1  UNL1       -0.2910
     13 C          63.6459   90.9368   11.7193 C.3     1  UNL1        0.0952
     14 C          64.4948   90.7811   12.9461 C.ar    1  UNL1       -0.0139
     15 C          65.0171   92.1873   12.9547 C.ar    1  UNL1        0.0361
     16 C          65.9700   92.6268   14.0266 C.ar    1  UNL1        0.1761
     17 C          66.4006   91.6601   15.0897 C.ar    1  UNL1        0.1761
     18 C          65.8783   90.2540   15.0810 C.ar    1  UNL1        0.0370
     19 C          64.9254   89.8146   14.0092 C.ar    1  UNL1       -0.0065
     20 C          64.7732   88.4063   14.5026 C.3     1  UNL1        0.0990
     21 O          67.3437   92.3749   16.0116 O.3     1  UNL1       -0.4346
     22 C          67.4960   93.7832   15.5182 C.3     1  UNL1        0.4294
     23 O          66.6470   93.9389   14.2913 O.3     1  UNL1       -0.4346
     24 O          59.5450   88.5566    7.3493 O.3     1  UNL1       -0.4346
     25 C          58.8681   87.2445    7.0846 C.3     1  UNL1        0.4294
     26 O          59.2987   86.2779    8.1477 O.3     1  UNL1       -0.4346
@<TRIPOS>BOND
     1     1     2    1
     2     2     3    1
     3     3     4    1
     4     4     5    1
     5     5     6   ar
     6     6     7   ar
     7     7     8   ar
     8     8     9   ar
     9     9    10   ar
    10    10    11    1
    11    11    12    2
    12    11    13    1
    13    13    14    1
    14    14    15   ar
    15    15    16   ar
    16    16    17   ar
    17    17    18   ar
    18    18    19   ar
    19    19    20    1
    20    17    21    1
    21    21    22    1
    22    22    23    1
    23     8    24    1
    24    24    25    1
    25    25    26    1
    26    20     2    1
    27    10     5   ar
    28    19    14   ar
    29    26     7    1
    30    23    16    1
