@<TRIPOS>MOLECULE
*****
 32 35 0 0 0
SMALL
GASTEIGER

@<TRIPOS>ATOM
      1 C          59.2699   89.5577    6.8092 C.ar    1  UNL1        0.0180
      2 C          58.7356   88.1635    6.9524 C.ar    1  UNL1        0.0029
      3 C          59.3476   87.2244    7.9492 C.ar    1  UNL1        0.0189
      4 C          60.4940   87.6796    8.8027 C.ar    1  UNL1        0.0789
      5 C          61.0284   89.0738    8.6595 C.ar    1  UNL1        0.0669
      6 C          60.4163   90.0128    7.6627 C.ar    1  UNL1        0.0174
      7 N          61.1061   86.7405    9.7995 N.ar    1  UNL1       -0.2852
      8 C          62.0307   85.6018    9.4858 C.ar    1  UNL1        0.1023
      9 C          62.3971   84.9328   10.7774 C.ar    1  UNL1        0.1196
     10 N          61.6989   85.6581   11.8894 N.ar    1  UNL1       -0.2220
     11 C          60.9010   86.7753   11.2850 C.ar    1  UNL1        0.1829
     12 N          62.1748   89.5290    9.5130 N.am    1  UNL1       -0.2792
     13 C          61.9104   90.2055   10.8254 C.2     1  UNL1        0.2510
     14 O          60.4996   90.4267   11.2844 O.2     1  UNL1       -0.2698
     15 H          63.1008   89.3838    9.2118 H       1  UNL1        0.1552
     16 C          63.0569   90.6607   11.6790 C.ar    1  UNL1        0.0728
     17 C          64.0476   91.6491   11.1391 C.ar    1  UNL1        0.0076
     18 C          65.1940   92.1043   11.9927 C.ar    1  UNL1        0.0193
     19 C          65.3496   91.5711   13.3860 C.ar    1  UNL1        0.0813
     20 N          64.3589   90.5827   13.9259 N.ar    1  UNL1       -0.2437
     21 C          63.2125   90.1275   13.0724 C.ar    1  UNL1        0.1033
     22 C          66.4961   92.0263   14.2396 C.ar    1  UNL1        0.0177
     23 C          66.2396   92.5590   15.6181 C.ar    1  UNL1        0.0015
     24 C          67.3860   93.0142   16.4716 C.ar    1  UNL1        0.0000
     25 C          68.7890   92.9367   15.9465 C.ar    1  UNL1        0.0000
     26 C          69.0455   92.4041   14.5680 C.ar    1  UNL1        0.0000
     27 C          67.8991   91.9489   13.7145 C.ar    1  UNL1        0.0015
     28 N          59.5277   91.4494    5.0471 N.2     1  UNL1       -0.0873
     29 C          58.6578   90.4967    5.8124 C.2     1  UNL1        0.0974
     30 C          57.1759   90.4832    5.5810 C.3     1  UNL1        0.0555
     31 C          59.7134   92.8503    2.8670 C.3     1  UNL1        0.2885
     32 O          58.9156   92.3884    4.0503 O.2     1  UNL1       -0.3734
@<TRIPOS>BOND
     1    31    32    1
     2    32    28    1
     3    28    29    2
     4    29    30    1
     5    29     1    1
     6     1     2   ar
     7     2     3   ar
     8     3     4   ar
     9     4     7    1
    10     7     8   ar
    11     8     9   ar
    12     9    10   ar
    13    10    11   ar
    14     4     5   ar
    15     5    12    1
    16    12    13   am
    17    13    14    2
    18    13    16    1
    19    16    17   ar
    20    17    18   ar
    21    18    19   ar
    22    19    22    1
    23    22    23   ar
    24    23    24   ar
    25    24    25   ar
    26    25    26   ar
    27    26    27   ar
    28    19    20   ar
    29    20    21   ar
    30     5     6   ar
    31     6     1   ar
    32    11     7   ar
    33    21    16   ar
    34    27    22   ar
    35    12    15    1
@<TRIPOS>MOLECULE
*****
 32 35 0 0 0
SMALL
GASTEIGER

@<TRIPOS>ATOM
      1 C          59.3262   88.8173    7.2579 C.ar    1  UNL1        0.0180
      2 C          58.9590   87.3651    7.3378 C.ar    1  UNL1        0.0029
      3 C          59.7214   86.4477    8.2472 C.ar    1  UNL1        0.0189
      4 C          60.8510   86.9824    9.0767 C.ar    1  UNL1        0.0789
      5 C          61.2181   88.4345    8.9968 C.ar    1  UNL1        0.0669
      6 C          60.4557   89.3520    8.0874 C.ar    1  UNL1        0.0174
      7 N          61.6134   86.0649    9.9861 N.ar    1  UNL1       -0.2852
      8 C          61.4672   85.9793   11.4765 C.ar    1  UNL1        0.1023
      9 C          62.4193   84.9335   11.9764 C.ar    1  UNL1        0.1196
     10 N          63.1539   84.3727   10.7949 N.ar    1  UNL1       -0.2220
     11 C          62.6558   85.0720    9.5649 C.ar    1  UNL1        0.1829
     12 N          62.3478   88.9693    9.8263 N.am    1  UNL1       -0.2792
     13 C          62.0580   89.7831   11.0526 C.2     1  UNL1        0.2510
     14 O          60.6386   90.0622   11.4493 O.2     1  UNL1       -0.2698
     15 H          63.2794   88.7861    9.5659 H       1  UNL1        0.1552
     16 C          63.1876   90.3179   11.8821 C.ar    1  UNL1        0.0728
     17 C          63.5247   89.6741   13.1943 C.ar    1  UNL1        0.0076
     18 C          64.6543   90.2089   14.0237 C.ar    1  UNL1        0.0193
     19 C          65.4468   91.3874   13.5410 C.ar    1  UNL1        0.0813
     20 N          65.1097   92.0311   12.2287 N.ar    1  UNL1       -0.2437
     21 C          63.9802   91.4963   11.3993 C.ar    1  UNL1        0.1033
     22 C          66.5764   91.9222   14.3705 C.ar    1  UNL1        0.0177
     23 C          67.9715   91.9333   13.8197 C.ar    1  UNL1        0.0015
     24 C          69.1011   92.4681   14.6492 C.ar    1  UNL1        0.0000
     25 C          68.8355   92.9916   16.0295 C.ar    1  UNL1        0.0000
     26 C          67.4404   92.9805   16.5803 C.ar    1  UNL1        0.0000
     27 C          66.3108   92.4457   15.7508 C.ar    1  UNL1        0.0015
     28 N          57.0639   89.7343    6.3684 N.2     1  UNL1       -0.0873
     29 C          58.5638   89.7347    6.3485 C.2     1  UNL1        0.0974
     30 C          59.3012   90.6526    5.4191 C.3     1  UNL1        0.0555
     31 C          57.0019   91.7979    4.7911 C.3     1  UNL1        0.2885
     32 O          56.3015   90.6518    5.4590 O.2     1  UNL1       -0.3734
@<TRIPOS>BOND
     1    31    32    1
     2    32    28    1
     3    28    29    2
     4    29    30    1
     5    29     1    1
     6     1     2   ar
     7     2     3   ar
     8     3     4   ar
     9     4     7    1
    10     7     8   ar
    11     8     9   ar
    12     9    10   ar
    13    10    11   ar
    14     4     5   ar
    15     5    12    1
    16    12    13   am
    17    13    14    2
    18    13    16    1
    19    16    17   ar
    20    17    18   ar
    21    18    19   ar
    22    19    22    1
    23    22    23   ar
    24    23    24   ar
    25    24    25   ar
    26    25    26   ar
    27    26    27   ar
    28    19    20   ar
    29    20    21   ar
    30     5     6   ar
    31     6     1   ar
    32    11     7   ar
    33    21    16   ar
    34    27    22   ar
    35    12    15    1
@<TRIPOS>MOLECULE
*****
 32 35 0 0 0
SMALL
GASTEIGER

@<TRIPOS>ATOM
      1 C          63.8581   84.2205   13.6921 C.ar    1  UNL1        0.0180
      2 C          64.4931   84.8729   14.8842 C.ar    1  UNL1        0.0029
      3 C          64.4741   86.3665   15.0206 C.ar    1  UNL1        0.0189
      4 C          63.8200   87.2078   13.9650 C.ar    1  UNL1        0.0789
      5 C          63.1849   86.5554   12.7729 C.ar    1  UNL1        0.0669
      6 C          63.2040   85.0618   12.6365 C.ar    1  UNL1        0.0174
      7 N          63.8009   88.7015   14.1014 N.ar    1  UNL1       -0.2852
      8 C          63.9756   89.6909   12.9877 C.ar    1  UNL1        0.1023
      9 C          63.8865   91.0689   13.5735 C.ar    1  UNL1        0.1196
     10 N          63.6567   90.9311   15.0494 N.ar    1  UNL1       -0.2220
     11 C          63.6038   89.4680   15.3756 C.ar    1  UNL1        0.1829
     12 N          62.5308   87.3967   11.7172 N.am    1  UNL1       -0.2792
     13 C          61.7515   86.7439   10.6142 C.2     1  UNL1        0.2510
     14 O          61.6264   85.2499   10.5669 O.2     1  UNL1       -0.2698
     15 H          62.6129   88.3773   11.7483 H       1  UNL1        0.1552
     16 C          61.0974   87.5852    9.5585 C.ar    1  UNL1        0.0728
     17 C          60.2885   86.9348    8.4757 C.ar    1  UNL1        0.0076
     18 C          59.6344   87.7760    7.4201 C.ar    1  UNL1        0.0193
     19 C          59.7892   89.2678    7.4473 C.ar    1  UNL1        0.0813
     20 N          60.5981   89.9182    8.5301 N.ar    1  UNL1       -0.2437
     21 C          61.2522   89.0770    9.5857 C.ar    1  UNL1        0.1033
     22 C          59.1351   90.1090    6.3916 C.ar    1  UNL1        0.0177
     23 C          59.9725   90.9708    5.4938 C.ar    1  UNL1        0.0015
     24 C          59.3183   91.8120    4.4381 C.ar    1  UNL1        0.0000
     25 C          57.8268   91.7915    4.2803 C.ar    1  UNL1        0.0000
     26 C          56.9894   90.9297    5.1782 C.ar    1  UNL1        0.0000
     27 C          57.6435   90.0885    6.2338 C.ar    1  UNL1        0.0015
     28 N          63.1902   81.8714   14.5785 N.2     1  UNL1       -0.0873
     29 C          63.8772   82.7268   13.5556 C.2     1  UNL1        0.0974
     30 C          64.5832   82.0886   12.3963 C.3     1  UNL1        0.0555
     31 C          62.2868   79.7015   13.4716 C.3     1  UNL1        0.2885
     32 O          63.2092   80.3778   14.4421 O.2     1  UNL1       -0.3734
@<TRIPOS>BOND
     1    31    32    1
     2    32    28    1
     3    28    29    2
     4    29    30    1
     5    29     1    1
     6     1     2   ar
     7     2     3   ar
     8     3     4   ar
     9     4     7    1
    10     7     8   ar
    11     8     9   ar
    12     9    10   ar
    13    10    11   ar
    14     4     5   ar
    15     5    12    1
    16    12    13   am
    17    13    14    2
    18    13    16    1
    19    16    17   ar
    20    17    18   ar
    21    18    19   ar
    22    19    22    1
    23    22    23   ar
    24    23    24   ar
    25    24    25   ar
    26    25    26   ar
    27    26    27   ar
    28    19    20   ar
    29    20    21   ar
    30     5     6   ar
    31     6     1   ar
    32    11     7   ar
    33    21    16   ar
    34    27    22   ar
    35    12    15    1
@<TRIPOS>MOLECULE
*****
 32 35 0 0 0
SMALL
GASTEIGER

@<TRIPOS>ATOM
      1 C          64.8839   91.4400   14.0849 C.ar    1  UNL1        0.0180
      2 C          64.5248   91.7101   15.5160 C.ar    1  UNL1        0.0029
      3 C          63.8603   90.6446   16.3365 C.ar    1  UNL1        0.0189
      4 C          63.5549   89.3090   15.7259 C.ar    1  UNL1        0.0789
      5 C          63.9139   89.0389   14.2948 C.ar    1  UNL1        0.0669
      6 C          64.5784   90.1044   13.4743 C.ar    1  UNL1        0.0174
      7 N          62.8904   88.2435   16.5464 N.ar    1  UNL1       -0.2852
      8 C          63.4264   87.6424   17.8118 C.ar    1  UNL1        0.1023
      9 C          62.4405   86.6194   18.2930 C.ar    1  UNL1        0.1196
     10 N          61.2951   86.5883   17.3249 N.ar    1  UNL1       -0.2220
     11 C          61.5732   87.5920   16.2455 C.ar    1  UNL1        0.1829
     12 N          63.6085   87.7033   13.6841 N.am    1  UNL1       -0.2792
     13 C          64.3352   86.4790   14.1560 C.2     1  UNL1        0.2510
     14 O          65.3675   86.5902   15.2387 O.2     1  UNL1       -0.2698
     15 H          62.9310   87.6303   12.9735 H       1  UNL1        0.1552
     16 C          64.0298   85.1433   13.5453 C.ar    1  UNL1        0.0728
     17 C          63.1385   85.0550   12.3421 C.ar    1  UNL1        0.0076
     18 C          62.8331   83.7194   11.7315 C.ar    1  UNL1        0.0193
     19 C          63.4190   82.4722   12.3241 C.ar    1  UNL1        0.0813
     20 N          64.3103   82.5605   13.5273 N.ar    1  UNL1       -0.2437
     21 C          64.6157   83.8961   14.1379 C.ar    1  UNL1        0.1033
     22 C          63.1135   81.1366   11.7134 C.ar    1  UNL1        0.0177
     23 C          63.2144   80.9501   10.2284 C.ar    1  UNL1        0.0015
     24 C          62.9090   79.6146    9.6178 C.ar    1  UNL1        0.0000
     25 C          62.5026   78.4654   10.4921 C.ar    1  UNL1        0.0000
     26 C          62.4017   78.6519   11.9770 C.ar    1  UNL1        0.0000
     27 C          62.7072   79.9874   12.5876 C.ar    1  UNL1        0.0015
     28 N          65.2656   92.6060   11.7948 N.2     1  UNL1       -0.0873
     29 C          65.5483   92.5055   13.2644 C.2     1  UNL1        0.0974
     30 C          66.4956   93.4705   13.9136 C.3     1  UNL1        0.0555
     31 C          67.0480   93.3115   10.0411 C.3     1  UNL1        0.2885
     32 O          65.9301   93.6715   10.9743 O.2     1  UNL1       -0.3734
@<TRIPOS>BOND
     1    31    32    1
     2    32    28    1
     3    28    29    2
     4    29    30    1
     5    29     1    1
     6     1     2   ar
     7     2     3   ar
     8     3     4   ar
     9     4     7    1
    10     7     8   ar
    11     8     9   ar
    12     9    10   ar
    13    10    11   ar
    14     4     5   ar
    15     5    12    1
    16    12    13   am
    17    13    14    2
    18    13    16    1
    19    16    17   ar
    20    17    18   ar
    21    18    19   ar
    22    19    22    1
    23    22    23   ar
    24    23    24   ar
    25    24    25   ar
    26    25    26   ar
    27    26    27   ar
    28    19    20   ar
    29    20    21   ar
    30     5     6   ar
    31     6     1   ar
    32    11     7   ar
    33    21    16   ar
    34    27    22   ar
    35    12    15    1
