@<TRIPOS>MOLECULE
*****
 45 51 0 0 0
SMALL
GASTEIGER

@<TRIPOS>ATOM
      1 C          63.5294   83.6779   12.3890 C.ar    1  UNL1        0.0907
      2 C          62.7289   82.9151   11.3755 C.ar    1  UNL1        0.1496
      3 O          61.9615   83.9052   10.5504 O.2     1  UNL1       -0.4533
      4 C          62.2877   85.2800   11.0541 C.ar    1  UNL1        0.1467
      5 C          61.8276   86.6416   10.6248 C.ar    1  UNL1        0.0536
      6 C          62.3365   87.8627   11.3319 C.ar    1  UNL1        0.0730
      7 C          63.3055   87.7222   12.4682 C.ar    1  UNL1        0.0327
      8 C          63.7656   86.3606   12.8974 C.ar    1  UNL1        0.0061
      9 C          63.2568   85.1395   12.1904 C.ar    1  UNL1        0.0420
     10 C          63.8145   88.9433   13.1752 C.ar    1  UNL1        0.0825
     11 C          63.8148   88.9965   14.6743 C.ar    1  UNL1        0.0192
     12 C          64.3237   90.2175   15.3814 C.ar    1  UNL1        0.0031
     13 C          64.8323   91.3854   14.5894 C.ar    1  UNL1        0.0206
     14 C          65.3412   92.6066   15.2965 C.ar    1  UNL1        0.0205
     15 C          65.8499   93.7745   14.5045 C.ar    1  UNL1        0.0802
     16 N          65.8496   93.7213   13.0054 N.ar    1  UNL1       -0.3034
     17 C          66.2859   94.7108   11.9659 C.ar    1  UNL1        0.0662
     18 C          66.8702   96.0881   12.0739 C.ar    1  UNL1        0.0177
     19 C          67.2153   96.8558   10.8323 C.ar    1  UNL1        0.0038
     20 C          66.9761   96.2463    9.4828 C.ar    1  UNL1        0.0297
     21 C          66.3918   94.8690    9.3749 C.ar    1  UNL1        0.1415
     22 F          66.1526   94.2594    8.0253 F       1  UNL1       -0.2041
     23 C          66.0467   94.1012   10.6164 C.ar    1  UNL1        0.0451
     24 C          65.4625   92.7350   10.8219 C.ar    1  UNL1        0.0227
     25 C          65.3406   92.5003   12.2984 C.ar    1  UNL1        0.0818
     26 C          64.8320   91.3323   13.0903 C.ar    1  UNL1        0.0973
     27 N          64.3231   90.1112   12.3833 N.ar    1  UNL1       -0.2438
     28 C          62.7007   81.4239   11.2151 C.ar    1  UNL1        0.0349
     29 C          62.9471   80.8096    9.8691 C.ar    1  UNL1        0.0053
     30 C          62.9190   79.3185    9.7087 C.ar    1  UNL1        0.0297
     31 C          62.6444   78.4417   10.8944 C.ar    1  UNL1        0.1401
     32 F          62.6163   76.9505   10.7340 F       1  UNL1       -0.2042
     33 C          62.3980   79.0561   12.2404 C.ar    1  UNL1        0.0297
     34 C          62.4262   80.5472   12.4008 C.ar    1  UNL1        0.0053
     35 C          65.3246   82.9973   15.8623 C.3     1  UNL1        0.1109
     36 N          64.4118   83.5917   14.8312 N.am    1  UNL1       -0.2991
     37 C          64.4423   83.0835   13.4202 C.2     1  UNL1        0.2490
     38 O          65.3857   81.9810   13.0405 O.2     1  UNL1       -0.2700
     39 H          63.7925   84.3153   15.0805 H       1  UNL1        0.1498
     40 N          61.8764   89.2243   10.9026 N.pl3   1  UNL1       -0.1924
     41 C          62.7791   90.0968   10.0816 C.3     1  UNL1        0.1388
     42 S          60.5135   89.7135   11.2943 S.O2    1  UNL1        0.0588
     43 C          59.1507   90.2027   11.6860 C.3     1  UNL1        0.1999
     44 O          60.1034   89.7264    9.8515 O.2     1  UNL1       -0.1542
     45 O          60.9236   89.7007   12.7370 O.2     1  UNL1       -0.1542
@<TRIPOS>BOND
     1    35    36    1
     2    36    37   am
     3    37    38    2
     4    37     1    1
     5     1     2   ar
     6     2    28    1
     7    28    29   ar
     8    29    30   ar
     9    30    31   ar
    10    31    32    1
    11    31    33   ar
    12    33    34   ar
    13     2     3   ar
    14     3     4   ar
    15     4     5   ar
    16     5     6   ar
    17     6    40    1
    18    40    41    1
    19    40    42    1
    20    42    43    1
    21    42    44    2
    22    42    45    2
    23     6     7   ar
    24     7    10    1
    25    10    11   ar
    26    11    12   ar
    27    12    13   ar
    28    13    14   ar
    29    14    15   ar
    30    15    16   ar
    31    16    17   ar
    32    17    18   ar
    33    18    19   ar
    34    19    20   ar
    35    20    21   ar
    36    21    22    1
    37    21    23   ar
    38    23    24   ar
    39    24    25   ar
    40    25    26   ar
    41    26    27   ar
    42     7     8   ar
    43     8     9   ar
    44     9     1   ar
    45    34    28   ar
    46     9     4   ar
    47    27    10   ar
    48    26    13   ar
    49    25    16   ar
    50    23    17   ar
    51    36    39    1
