@<TRIPOS>MOLECULE
*****
 46 50 0 0 0
SMALL
GASTEIGER

@<TRIPOS>ATOM
      1 C          62.8074   85.5826   12.1654 C.ar    1  UNL1        0.1218
      2 C          62.2334   84.9474   10.9337 C.ar    1  UNL1        0.0208
      3 C          61.6726   85.8058    9.8388 C.ar    1  UNL1        0.0112
      4 C          61.6857   87.2995    9.9757 C.ar    1  UNL1        0.0611
      5 C          62.2597   87.9348   11.2075 C.ar    1  UNL1        0.1068
      6 N          62.8205   87.0763   12.3022 N.ar    1  UNL1       -0.2421
      7 C          63.3682   84.7242   13.2602 C.3     1  UNL1        0.3254
      8 F          64.6269   85.5401   13.2552 F       1  UNL1       -0.1949
      9 F          62.0112   84.1403   13.0002 F       1  UNL1       -0.1949
     10 O          64.4899   83.0075   15.4498 O.3     1  UNL1       -0.3755
     11 C          63.9290   83.8659   14.3550 C.3     1  UNL1        0.1932
     12 H          64.1798   82.0954   15.3365 H       1  UNL1        0.2110
     13 C          63.5197   82.6359   13.6004 C.ar    1  UNL1        0.0368
     14 C          62.5041   81.7000   14.1858 C.ar    1  UNL1        0.0028
     15 C          62.0948   80.4700   13.4311 C.ar    1  UNL1        0.0295
     16 C          62.7011   80.1758   12.0910 C.ar    1  UNL1        0.1424
     17 F          62.2918   78.9459   11.3363 F       1  UNL1       -0.2041
     18 C          63.7167   81.1116   11.5056 C.ar    1  UNL1        0.0590
     19 C          64.1261   82.3417   12.2603 C.ar    1  UNL1        0.1408
     20 F          65.1417   83.2775   11.6749 F       1  UNL1       -0.2043
     21 C          64.3384   85.0959   15.1098 C.3     1  UNL1        0.1679
     22 N          63.3289   85.8434   15.9296 N.ar    1  UNL1       -0.2078
     23 C          63.4590   87.2571   16.4139 C.ar    1  UNL1        0.2216
     24 N          62.2226   87.5960   17.1927 N.ar    1  UNL1       -0.1048
     25 N          61.3283   86.3916   17.1896 N.ar    1  UNL1       -0.0226
     26 N          62.0121   85.3086   16.4090 N.ar    1  UNL1       -0.0428
     27 C          61.1250   88.1579    8.8809 C.1     1  UNL1       -0.0582
     28 C          60.5642   89.0163    7.7862 C.1     1  UNL1       -0.0597
     29 C          60.0033   89.8748    6.6913 C.ar    1  UNL1        0.0422
     30 C          60.9274   90.5802    5.7435 C.ar    1  UNL1        0.0114
     31 C          60.3665   91.4386    4.6487 C.ar    1  UNL1        0.0375
     32 C          58.8816   91.5915    4.5018 C.ar    1  UNL1        0.1391
     33 C          57.9575   90.8861    5.4496 C.ar    1  UNL1        0.0375
     34 C          58.5184   90.0277    6.5444 C.ar    1  UNL1        0.0114
     35 O          58.3208   92.4499    3.4069 O.3     1  UNL1       -0.4706
     36 C          58.9919   92.4888    2.0660 C.3     1  UNL1        0.2320
     37 C          60.2500   93.2843    1.8797 C.ar    1  UNL1        0.0211
     38 C          60.2014   94.7831    1.9129 C.ar    1  UNL1       -0.0007
     39 C          61.4595   95.5785    1.7267 C.ar    1  UNL1        0.0036
     40 C          62.7660   94.8750    1.5072 C.ar    1  UNL1        0.0714
     41 C          62.8145   93.3762    1.4739 C.ar    1  UNL1        0.0036
     42 C          61.5565   92.5808    1.6602 C.ar    1  UNL1       -0.0007
     43 C          64.0240   95.6705    1.3209 C.3     1  UNL1        0.4186
     44 F          65.2820   96.4659    1.1345 F       1  UNL1       -0.1659
     45 F          63.5658   96.6407    2.3692 F       1  UNL1       -0.1659
     46 F          64.4821   94.7004    0.2726 F       1  UNL1       -0.1659
@<TRIPOS>BOND
     1    10    11    1
     2    11    21    1
     3    21    22    1
     4    22    23   ar
     5    23    24   ar
     6    24    25   ar
     7    25    26   ar
     8    11    13    1
     9    13    14   ar
    10    14    15   ar
    11    15    16   ar
    12    16    17    1
    13    16    18   ar
    14    18    19   ar
    15    19    20    1
    16    11     7    1
    17     7     8    1
    18     7     9    1
    19     7     1    1
    20     1     2   ar
    21     2     3   ar
    22     3     4   ar
    23     4    27    1
    24    27    28    3
    25    28    29    1
    26    29    30   ar
    27    30    31   ar
    28    31    32   ar
    29    32    35    1
    30    35    36    1
    31    36    37    1
    32    37    38   ar
    33    38    39   ar
    34    39    40   ar
    35    40    43    1
    36    43    44    1
    37    43    45    1
    38    43    46    1
    39    40    41   ar
    40    41    42   ar
    41    32    33   ar
    42    33    34   ar
    43     4     5   ar
    44     5     6   ar
    45    26    22   ar
    46    19    13   ar
    47     6     1   ar
    48    34    29   ar
    49    42    37   ar
    50    10    12    1
@<TRIPOS>MOLECULE
*****
 46 50 0 0 0
SMALL
GASTEIGER

@<TRIPOS>ATOM
      1 C          62.8994   85.6594   12.2219 C.ar    1  UNL1        0.1218
      2 C          62.3023   85.0054   11.0112 C.ar    1  UNL1        0.0208
      3 C          61.7451   85.8475    9.9019 C.ar    1  UNL1        0.0112
      4 C          61.7850   87.3436   10.0034 C.ar    1  UNL1        0.0611
      5 C          62.3822   87.9975   11.2142 C.ar    1  UNL1        0.1068
      6 N          62.9394   87.1554   12.3234 N.ar    1  UNL1       -0.2421
      7 C          63.4566   84.8172   13.3312 C.3     1  UNL1        0.3254
      8 F          64.7194   85.6266   13.3113 F       1  UNL1       -0.1949
      9 F          62.0966   84.2357   13.0820 F       1  UNL1       -0.1949
     10 O          64.5710   83.1332   15.5496 O.3     1  UNL1       -0.3755
     11 C          64.0138   83.9752   14.4404 C.3     1  UNL1        0.1932
     12 H          64.2566   82.2207   15.4522 H       1  UNL1        0.2110
     13 C          63.5983   82.7344   13.7072 C.ar    1  UNL1        0.0368
     14 C          64.3671   82.2832   12.5007 C.ar    1  UNL1        0.0028
     15 C          63.9516   81.0423   11.7675 C.ar    1  UNL1        0.0295
     16 C          62.7673   80.2526   12.2407 C.ar    1  UNL1        0.1424
     17 F          62.3518   79.0118   11.5075 F       1  UNL1       -0.2041
     18 C          61.9985   80.7038   13.4471 C.ar    1  UNL1        0.0590
     19 C          62.4140   81.9447   14.1804 C.ar    1  UNL1        0.1408
     20 F          61.6453   82.3958   15.3868 F       1  UNL1       -0.2043
     21 C          64.4294   85.2161   15.1737 C.3     1  UNL1        0.1679
     22 N          63.4210   85.9897   15.9703 N.ar    1  UNL1       -0.2078
     23 C          62.2882   85.4070   16.7624 C.ar    1  UNL1        0.2216
     24 N          61.5354   86.5390   17.3963 N.ar    1  UNL1       -0.1048
     25 N          62.2029   87.8213   16.9960 N.ar    1  UNL1       -0.0226
     26 N          63.3682   87.4818   16.1147 N.ar    1  UNL1       -0.0428
     27 C          61.2279   88.1857    8.8942 C.1     1  UNL1       -0.0582
     28 C          60.6707   89.0278    7.7850 C.1     1  UNL1       -0.0597
     29 C          60.1136   89.8700    6.6757 C.ar    1  UNL1        0.0422
     30 C          58.6289   90.0040    6.5090 C.ar    1  UNL1        0.0114
     31 C          58.0719   90.8461    5.3998 C.ar    1  UNL1        0.0375
     32 C          58.9994   91.5543    4.4573 C.ar    1  UNL1        0.1391
     33 C          60.4840   91.4202    4.6241 C.ar    1  UNL1        0.0375
     34 C          61.0411   90.5781    5.7333 C.ar    1  UNL1        0.0114
     35 O          58.4423   92.3964    3.3480 O.3     1  UNL1       -0.4706
     36 C          59.2293   93.5599    2.8218 C.3     1  UNL1        0.2320
     37 C          59.8789   93.4771    1.4723 C.ar    1  UNL1        0.0211
     38 C          59.0490   93.6164    0.2306 C.ar    1  UNL1       -0.0007
     39 C          59.6986   93.5335   -1.1188 C.ar    1  UNL1        0.0036
     40 C          61.1782   93.3114   -1.2266 C.ar    1  UNL1        0.0714
     41 C          62.0081   93.1721    0.0151 C.ar    1  UNL1        0.0036
     42 C          61.3585   93.2549    1.3645 C.ar    1  UNL1       -0.0007
     43 C          61.8278   93.2286   -2.5762 C.3     1  UNL1        0.4186
     44 F          62.4773   93.1458   -3.9257 F       1  UNL1       -0.1659
     45 F          63.1751   93.1418   -1.9223 F       1  UNL1       -0.1659
     46 F          60.4806   93.3153   -3.2299 F       1  UNL1       -0.1659
@<TRIPOS>BOND
     1    10    11    1
     2    11    21    1
     3    21    22    1
     4    22    23   ar
     5    23    24   ar
     6    24    25   ar
     7    25    26   ar
     8    11    13    1
     9    13    14   ar
    10    14    15   ar
    11    15    16   ar
    12    16    17    1
    13    16    18   ar
    14    18    19   ar
    15    19    20    1
    16    11     7    1
    17     7     8    1
    18     7     9    1
    19     7     1    1
    20     1     2   ar
    21     2     3   ar
    22     3     4   ar
    23     4    27    1
    24    27    28    3
    25    28    29    1
    26    29    30   ar
    27    30    31   ar
    28    31    32   ar
    29    32    35    1
    30    35    36    1
    31    36    37    1
    32    37    38   ar
    33    38    39   ar
    34    39    40   ar
    35    40    43    1
    36    43    44    1
    37    43    45    1
    38    43    46    1
    39    40    41   ar
    40    41    42   ar
    41    32    33   ar
    42    33    34   ar
    43     4     5   ar
    44     5     6   ar
    45    26    22   ar
    46    19    13   ar
    47     6     1   ar
    48    34    29   ar
    49    42    37   ar
    50    10    12    1
@<TRIPOS>MOLECULE
*****
 46 50 0 0 0
SMALL
GASTEIGER

@<TRIPOS>ATOM
      1 C          59.9339   92.7295    2.4682 C.ar    1  UNL1        0.1218
      2 C          61.2928   92.2004    2.8194 C.ar    1  UNL1        0.0208
      3 C          61.4773   91.3663    4.0524 C.ar    1  UNL1        0.0112
      4 C          60.3028   91.0613    4.9342 C.ar    1  UNL1        0.0611
      5 C          58.9438   91.5905    4.5830 C.ar    1  UNL1        0.1068
      6 N          58.7594   92.4245    3.3500 N.ar    1  UNL1       -0.2421
      7 C          59.7494   93.5637    1.2352 C.3     1  UNL1        0.3254
      8 F          59.6479   92.3171    0.4071 F       1  UNL1       -0.1949
      9 F          59.8925   94.5713    2.3371 F       1  UNL1       -0.1949
     10 O          59.3805   95.2318   -1.2307 O.3     1  UNL1       -0.3755
     11 C          59.5650   94.3977    0.0022 C.3     1  UNL1        0.1932
     12 H          60.0958   95.8843   -1.2897 H       1  UNL1        0.2110
     13 C          60.9613   94.9253    0.1502 C.ar    1  UNL1        0.0368
     14 C          61.1958   96.2527    0.8082 C.ar    1  UNL1        0.0028
     15 C          62.5921   96.7803    0.9562 C.ar    1  UNL1        0.0295
     16 C          63.7540   95.9804    0.4461 C.ar    1  UNL1        0.1424
     17 F          65.1503   96.5079    0.5941 F       1  UNL1       -0.2041
     18 C          63.5196   94.6530   -0.2119 C.ar    1  UNL1        0.0590
     19 C          62.1232   94.1254   -0.3599 C.ar    1  UNL1        0.1408
     20 F          61.8888   92.7980   -1.0179 F       1  UNL1       -0.2043
     21 C          58.1686   93.8702   -0.1458 C.3     1  UNL1        0.1679
     22 N          57.6757   93.4189   -1.4887 N.ar    1  UNL1       -0.2078
     23 C          56.2783   93.5716   -2.0120 C.ar    1  UNL1        0.2216
     24 N          56.2327   92.9828   -3.3908 N.ar    1  UNL1       -0.1048
     25 N          57.6020   92.4660   -3.7196 N.ar    1  UNL1       -0.0226
     26 N          58.4938   92.7355   -2.5440 N.ar    1  UNL1       -0.0428
     27 C          60.4872   90.2272    6.1672 C.1     1  UNL1       -0.0582
     28 C          60.6716   89.3931    7.4001 C.1     1  UNL1       -0.0597
     29 C          60.8561   88.5589    8.6331 C.ar    1  UNL1        0.0422
     30 C          61.2489   89.2090    9.9266 C.ar    1  UNL1        0.0114
     31 C          61.4333   88.3748   11.1595 C.ar    1  UNL1        0.0375
     32 C          61.2249   86.8906   11.0989 C.ar    1  UNL1        0.1391
     33 C          60.8321   86.2406    9.8055 C.ar    1  UNL1        0.0375
     34 C          60.6476   87.0747    8.5726 C.ar    1  UNL1        0.0114
     35 O          61.4093   86.0564   12.3319 O.3     1  UNL1       -0.4706
     36 C          62.6749   85.2752   12.5265 C.3     1  UNL1        0.2320
     37 C          62.7279   83.8257   12.1439 C.ar    1  UNL1        0.0211
     38 C          63.1713   83.4293   10.7669 C.ar    1  UNL1       -0.0007
     39 C          63.2243   81.9799   10.3843 C.ar    1  UNL1        0.0036
     40 C          62.8339   80.9269   11.3787 C.ar    1  UNL1        0.0714
     41 C          62.3906   81.3234   12.7557 C.ar    1  UNL1        0.0036
     42 C          62.3376   82.7728   13.1383 C.ar    1  UNL1       -0.0007
     43 C          62.8870   79.4775   10.9961 C.3     1  UNL1        0.4186
     44 F          62.9400   78.0281   10.6135 F       1  UNL1       -0.1659
     45 F          63.2880   79.8601    9.6022 F       1  UNL1       -0.1659
     46 F          62.4860   79.0949   12.3899 F       1  UNL1       -0.1659
@<TRIPOS>BOND
     1    10    11    1
     2    11    21    1
     3    21    22    1
     4    22    23   ar
     5    23    24   ar
     6    24    25   ar
     7    25    26   ar
     8    11    13    1
     9    13    14   ar
    10    14    15   ar
    11    15    16   ar
    12    16    17    1
    13    16    18   ar
    14    18    19   ar
    15    19    20    1
    16    11     7    1
    17     7     8    1
    18     7     9    1
    19     7     1    1
    20     1     2   ar
    21     2     3   ar
    22     3     4   ar
    23     4    27    1
    24    27    28    3
    25    28    29    1
    26    29    30   ar
    27    30    31   ar
    28    31    32   ar
    29    32    35    1
    30    35    36    1
    31    36    37    1
    32    37    38   ar
    33    38    39   ar
    34    39    40   ar
    35    40    43    1
    36    43    44    1
    37    43    45    1
    38    43    46    1
    39    40    41   ar
    40    41    42   ar
    41    32    33   ar
    42    33    34   ar
    43     4     5   ar
    44     5     6   ar
    45    26    22   ar
    46    19    13   ar
    47     6     1   ar
    48    34    29   ar
    49    42    37   ar
    50    10    12    1
@<TRIPOS>MOLECULE
*****
 46 50 0 0 0
SMALL
GASTEIGER

@<TRIPOS>ATOM
      1 C          60.2045   93.3891    1.6600 C.ar    1  UNL1        0.1218
      2 C          61.5166   92.8088    2.0975 C.ar    1  UNL1        0.0208
      3 C          61.5885   91.9673    3.3372 C.ar    1  UNL1        0.0112
      4 C          60.3481   91.7061    4.1394 C.ar    1  UNL1        0.0611
      5 C          59.0359   92.2864    3.7017 C.ar    1  UNL1        0.1068
      6 N          58.9641   93.1279    2.4621 N.ar    1  UNL1       -0.2421
      7 C          60.1326   94.2306    0.4203 C.3     1  UNL1        0.3254
      8 F          59.6054   95.3781    1.2298 F       1  UNL1       -0.1949
      9 F          60.6615   92.9135   -0.0651 F       1  UNL1       -0.1949
     10 O          59.9888   95.9135   -2.0589 O.3     1  UNL1       -0.3755
     11 C          60.0607   95.0720   -0.8193 C.3     1  UNL1        0.1932
     12 H          59.4782   95.4457   -2.7381 H       1  UNL1        0.2110
     13 C          58.9785   94.1846   -1.3590 C.ar    1  UNL1        0.0368
     14 C          57.6085   94.2164   -0.7489 C.ar    1  UNL1        0.0028
     15 C          56.5264   93.3290   -1.2886 C.ar    1  UNL1        0.0295
     16 C          56.8142   92.4096   -2.4384 C.ar    1  UNL1        0.1424
     17 F          55.7320   91.5221   -2.9781 F       1  UNL1       -0.2041
     18 C          58.1841   92.3777   -3.0484 C.ar    1  UNL1        0.0590
     19 C          59.2663   93.2652   -2.5088 C.ar    1  UNL1        0.1408
     20 F          60.6363   93.2333   -3.1188 F       1  UNL1       -0.2043
     21 C          61.1429   95.9596   -0.2796 C.3     1  UNL1        0.1679
     22 N          62.5800   95.6655   -0.5931 N.ar    1  UNL1       -0.2078
     23 C          63.6895   95.5245    0.4065 C.ar    1  UNL1        0.2216
     24 N          64.9551   95.2327   -0.3438 N.ar    1  UNL1       -0.1048
     25 N          64.6278   95.1933   -1.8072 N.ar    1  UNL1       -0.0226
     26 N          63.1599   95.4608   -1.9612 N.ar    1  UNL1       -0.0428
     27 C          60.4200   90.8647    5.3790 C.1     1  UNL1       -0.0582
     28 C          60.4918   90.0232    6.6186 C.1     1  UNL1       -0.0597
     29 C          60.5636   89.1818    7.8584 C.ar    1  UNL1        0.0422
     30 C          60.0749   87.7639    7.8318 C.ar    1  UNL1        0.0114
     31 C          60.1468   86.9225    9.0715 C.ar    1  UNL1        0.0375
     32 C          60.7073   87.4990   10.3378 C.ar    1  UNL1        0.1391
     33 C          61.1960   88.9169   10.3643 C.ar    1  UNL1        0.0375
     34 C          61.1242   89.7583    9.1246 C.ar    1  UNL1        0.0114
     35 O          60.7792   86.6576   11.5775 O.3     1  UNL1       -0.4706
     36 C          62.1058   86.1619   12.0717 C.3     1  UNL1        0.2320
     37 C          62.2665   84.7268   12.4774 C.ar    1  UNL1        0.0211
     38 C          62.5133   83.6761   11.4357 C.ar    1  UNL1       -0.0007
     39 C          62.6740   82.2410   11.8414 C.ar    1  UNL1        0.0036
     40 C          62.5879   81.8566   13.2888 C.ar    1  UNL1        0.0714
     41 C          62.3411   82.9073   14.3304 C.ar    1  UNL1        0.0036
     42 C          62.1804   84.3424   13.9247 C.ar    1  UNL1       -0.0007
     43 C          62.7487   80.4214   13.6945 C.3     1  UNL1        0.4186
     44 F          62.9094   78.9863   14.1001 F       1  UNL1       -0.1659
     45 F          61.2661   80.2232   13.5808 F       1  UNL1       -0.1659
     46 F          64.2311   80.6196   13.8081 F       1  UNL1       -0.1659
@<TRIPOS>BOND
     1    10    11    1
     2    11    21    1
     3    21    22    1
     4    22    23   ar
     5    23    24   ar
     6    24    25   ar
     7    25    26   ar
     8    11    13    1
     9    13    14   ar
    10    14    15   ar
    11    15    16   ar
    12    16    17    1
    13    16    18   ar
    14    18    19   ar
    15    19    20    1
    16    11     7    1
    17     7     8    1
    18     7     9    1
    19     7     1    1
    20     1     2   ar
    21     2     3   ar
    22     3     4   ar
    23     4    27    1
    24    27    28    3
    25    28    29    1
    26    29    30   ar
    27    30    31   ar
    28    31    32   ar
    29    32    35    1
    30    35    36    1
    31    36    37    1
    32    37    38   ar
    33    38    39   ar
    34    39    40   ar
    35    40    43    1
    36    43    44    1
    37    43    45    1
    38    43    46    1
    39    40    41   ar
    40    41    42   ar
    41    32    33   ar
    42    33    34   ar
    43     4     5   ar
    44     5     6   ar
    45    26    22   ar
    46    19    13   ar
    47     6     1   ar
    48    34    29   ar
    49    42    37   ar
    50    10    12    1
@<TRIPOS>MOLECULE
*****
 46 50 0 0 0
SMALL
GASTEIGER

@<TRIPOS>ATOM
      1 C          62.4579   85.7090   11.6436 C.ar    1  UNL1        0.1218
      2 C          62.5323   85.2520   10.2169 C.ar    1  UNL1        0.0208
      3 C          62.0306   86.1407    9.1175 C.ar    1  UNL1        0.0112
      4 C          61.4545   87.4864    9.4449 C.ar    1  UNL1        0.0611
      5 C          61.3801   87.9434   10.8717 C.ar    1  UNL1        0.1068
      6 N          61.8818   87.0547   11.9710 N.ar    1  UNL1       -0.2421
      7 C          62.9596   84.8203   12.7429 C.3     1  UNL1        0.3254
      8 F          64.1785   84.5013   11.9288 F       1  UNL1       -0.1949
      9 F          61.6557   85.3448   13.2668 F       1  UNL1       -0.1949
     10 O          63.9631   83.0429   14.9415 O.3     1  UNL1       -0.3755
     11 C          63.4614   83.9316   13.8422 C.3     1  UNL1        0.1932
     12 H          64.2559   83.5873   15.6891 H       1  UNL1        0.2110
     13 C          63.4354   85.0921   14.7922 C.ar    1  UNL1        0.0368
     14 C          64.2049   86.3397   14.4734 C.ar    1  UNL1        0.0028
     15 C          64.1790   87.5002   15.4234 C.ar    1  UNL1        0.0295
     16 C          63.3836   87.4132   16.6922 C.ar    1  UNL1        0.1424
     17 F          63.3577   88.5737   17.6422 F       1  UNL1       -0.2041
     18 C          62.6142   86.1657   17.0110 C.ar    1  UNL1        0.0590
     19 C          62.6401   85.0051   16.0610 C.ar    1  UNL1        0.1408
     20 F          61.8706   83.7576   16.3798 F       1  UNL1       -0.2043
     21 C          63.4873   82.7710   12.8922 C.3     1  UNL1        0.1679
     22 N          62.6671   81.5484   13.1792 N.ar    1  UNL1       -0.2078
     23 C          62.8524   80.1963   12.5568 C.ar    1  UNL1        0.2216
     24 N          61.8174   79.2754   13.1319 N.ar    1  UNL1       -0.1048
     25 N          60.9924   80.0585   14.1098 N.ar    1  UNL1       -0.0226
     26 N          61.5175   81.4633   14.1390 N.ar    1  UNL1       -0.0428
     27 C          60.9528   88.3751    8.3456 C.1     1  UNL1       -0.0582
     28 C          60.4511   89.2638    7.2464 C.1     1  UNL1       -0.0597
     29 C          59.9494   90.1526    6.1470 C.ar    1  UNL1        0.0422
     30 C          60.9192   90.7928    5.1986 C.ar    1  UNL1        0.0114
     31 C          60.4175   91.6815    4.0994 C.ar    1  UNL1        0.0375
     32 C          58.9459   91.9301    3.9486 C.ar    1  UNL1        0.1391
     33 C          57.9761   91.2899    4.8970 C.ar    1  UNL1        0.0375
     34 C          58.4779   90.4011    5.9962 C.ar    1  UNL1        0.0114
     35 O          58.4442   92.8189    2.8493 O.3     1  UNL1       -0.4706
     36 C          59.1469   92.8425    1.5243 C.3     1  UNL1        0.2320
     37 C          60.4475   93.5753    1.3780 C.ar    1  UNL1        0.0211
     38 C          61.6799   92.8371    0.9464 C.ar    1  UNL1       -0.0007
     39 C          62.9805   93.5699    0.8001 C.ar    1  UNL1        0.0036
     40 C          63.0487   95.0409    1.0855 C.ar    1  UNL1        0.0714
     41 C          61.8163   95.7791    1.5171 C.ar    1  UNL1        0.0036
     42 C          60.5158   95.0463    1.6634 C.ar    1  UNL1       -0.0007
     43 C          64.3494   95.7738    0.9392 C.3     1  UNL1        0.4186
     44 F          65.6499   96.5066    0.7930 F       1  UNL1       -0.1659
     45 F          64.5517   95.1456   -0.4079 F       1  UNL1       -0.1659
     46 F          64.1469   96.4018    2.2862 F       1  UNL1       -0.1659
@<TRIPOS>BOND
     1    10    11    1
     2    11    21    1
     3    21    22    1
     4    22    23   ar
     5    23    24   ar
     6    24    25   ar
     7    25    26   ar
     8    11    13    1
     9    13    14   ar
    10    14    15   ar
    11    15    16   ar
    12    16    17    1
    13    16    18   ar
    14    18    19   ar
    15    19    20    1
    16    11     7    1
    17     7     8    1
    18     7     9    1
    19     7     1    1
    20     1     2   ar
    21     2     3   ar
    22     3     4   ar
    23     4    27    1
    24    27    28    3
    25    28    29    1
    26    29    30   ar
    27    30    31   ar
    28    31    32   ar
    29    32    35    1
    30    35    36    1
    31    36    37    1
    32    37    38   ar
    33    38    39   ar
    34    39    40   ar
    35    40    43    1
    36    43    44    1
    37    43    45    1
    38    43    46    1
    39    40    41   ar
    40    41    42   ar
    41    32    33   ar
    42    33    34   ar
    43     4     5   ar
    44     5     6   ar
    45    26    22   ar
    46    19    13   ar
    47     6     1   ar
    48    34    29   ar
    49    42    37   ar
    50    10    12    1
@<TRIPOS>MOLECULE
*****
 46 50 0 0 0
SMALL
GASTEIGER

@<TRIPOS>ATOM
      1 C          62.7585   86.0603   11.8250 C.ar    1  UNL1        0.1218
      2 C          62.2442   85.3998   10.5804 C.ar    1  UNL1        0.0208
      3 C          61.7058   86.2343    9.4561 C.ar    1  UNL1        0.0112
      4 C          61.6817   87.7292    9.5767 C.ar    1  UNL1        0.0611
      5 C          62.1960   88.3897   10.8214 C.ar    1  UNL1        0.1068
      6 N          62.7344   87.5552   11.9456 N.ar    1  UNL1       -0.2421
      7 C          63.2969   85.2258   12.9492 C.3     1  UNL1        0.3254
      8 F          64.4408   86.1826   13.1116 F       1  UNL1       -0.1949
      9 F          62.0569   84.4994   12.5197 F       1  UNL1       -0.1949
     10 O          64.3739   83.5570   15.1976 O.3     1  UNL1       -0.3755
     11 C          63.8354   84.3914   14.0734 C.3     1  UNL1        0.1932
     12 H          64.1139   82.6317   15.0667 H       1  UNL1        0.2110
     13 C          63.5273   83.1458   13.2965 C.ar    1  UNL1        0.0368
     14 C          64.2935   82.8334   12.0453 C.ar    1  UNL1        0.0028
     15 C          63.9854   81.5879   11.2684 C.ar    1  UNL1        0.0295
     16 C          62.9110   80.6547   11.7426 C.ar    1  UNL1        0.1424
     17 F          62.6029   79.4091   10.9657 F       1  UNL1       -0.2041
     18 C          62.1448   80.9670   12.9937 C.ar    1  UNL1        0.0590
     19 C          62.4529   82.2126   13.7707 C.ar    1  UNL1        0.1408
     20 F          61.6867   82.5249   15.0218 F       1  UNL1       -0.2043
     21 C          64.1436   85.6370   14.8504 C.3     1  UNL1        0.1679
     22 N          63.2231   86.0837   15.9472 N.ar    1  UNL1       -0.2078
     23 C          63.3480   87.3496   16.7422 C.ar    1  UNL1        0.2216
     24 N          62.2182   87.3912   17.7280 N.ar    1  UNL1       -0.1048
     25 N          61.3950   86.1511   17.5423 N.ar    1  UNL1       -0.0226
     26 N          62.0161   85.3430   16.4417 N.ar    1  UNL1       -0.0428
     27 C          61.1432   88.5637    8.4525 C.1     1  UNL1       -0.0582
     28 C          60.6048   89.3982    7.3284 C.1     1  UNL1       -0.0597
     29 C          60.0664   90.2327    6.2042 C.ar    1  UNL1        0.0422
     30 C          58.5864   90.4264    6.0561 C.ar    1  UNL1        0.0114
     31 C          58.0481   91.2609    4.9319 C.ar    1  UNL1        0.0375
     32 C          58.9898   91.9017    3.9559 C.ar    1  UNL1        0.1391
     33 C          60.4698   91.7080    4.1040 C.ar    1  UNL1        0.0375
     34 C          61.0081   90.8735    5.2282 C.ar    1  UNL1        0.0114
     35 O          58.4514   92.7363    2.8317 O.3     1  UNL1       -0.4706
     36 C          59.3641   93.1916    1.7319 C.3     1  UNL1        0.2320
     37 C          58.8062   93.5017    0.3744 C.ar    1  UNL1        0.0211
     38 C          58.6161   94.9277   -0.0504 C.ar    1  UNL1       -0.0007
     39 C          58.0583   95.2377   -1.4079 C.ar    1  UNL1        0.0036
     40 C          57.6906   94.1219   -2.3404 C.ar    1  UNL1        0.0714
     41 C          57.8807   92.6960   -1.9156 C.ar    1  UNL1        0.0036
     42 C          58.4385   92.3859   -0.5582 C.ar    1  UNL1       -0.0007
     43 C          57.1327   94.4320   -3.6979 C.3     1  UNL1        0.4186
     44 F          56.5748   94.7421   -5.0553 F       1  UNL1       -0.1659
     45 F          58.4575   95.0004   -4.1125 F       1  UNL1       -0.1659
     46 F          55.8079   93.8637   -3.2833 F       1  UNL1       -0.1659
@<TRIPOS>BOND
     1    10    11    1
     2    11    21    1
     3    21    22    1
     4    22    23   ar
     5    23    24   ar
     6    24    25   ar
     7    25    26   ar
     8    11    13    1
     9    13    14   ar
    10    14    15   ar
    11    15    16   ar
    12    16    17    1
    13    16    18   ar
    14    18    19   ar
    15    19    20    1
    16    11     7    1
    17     7     8    1
    18     7     9    1
    19     7     1    1
    20     1     2   ar
    21     2     3   ar
    22     3     4   ar
    23     4    27    1
    24    27    28    3
    25    28    29    1
    26    29    30   ar
    27    30    31   ar
    28    31    32   ar
    29    32    35    1
    30    35    36    1
    31    36    37    1
    32    37    38   ar
    33    38    39   ar
    34    39    40   ar
    35    40    43    1
    36    43    44    1
    37    43    45    1
    38    43    46    1
    39    40    41   ar
    40    41    42   ar
    41    32    33   ar
    42    33    34   ar
    43     4     5   ar
    44     5     6   ar
    45    26    22   ar
    46    19    13   ar
    47     6     1   ar
    48    34    29   ar
    49    42    37   ar
    50    10    12    1
@<TRIPOS>MOLECULE
*****
 46 50 0 0 0
SMALL
GASTEIGER

@<TRIPOS>ATOM
      1 C          62.8244   85.4936   12.2760 C.ar    1  UNL1        0.1218
      2 C          62.9858   86.9838   12.3341 C.ar    1  UNL1        0.0208
      3 C          62.4416   87.8408   11.2298 C.ar    1  UNL1        0.0112
      4 C          61.7361   87.2076   10.0674 C.ar    1  UNL1        0.0611
      5 C          61.5747   85.7174   10.0093 C.ar    1  UNL1        0.1068
      6 N          62.1188   84.8604   11.1136 N.ar    1  UNL1       -0.2421
      7 C          63.3686   84.6366   13.3803 C.3     1  UNL1        0.3254
      8 F          62.0532   83.9216   13.4736 F       1  UNL1       -0.1949
      9 F          64.5131   85.5377   13.0226 F       1  UNL1       -0.1949
     10 O          64.4568   82.9226   15.5889 O.3     1  UNL1       -0.3755
     11 C          63.9127   83.7796   14.4846 C.3     1  UNL1        0.1932
     12 H          64.1419   82.0120   15.4765 H       1  UNL1        0.2110
     13 C          63.5030   82.5489   13.7313 C.ar    1  UNL1        0.0368
     14 C          62.4916   81.6108   14.3206 C.ar    1  UNL1        0.0028
     15 C          62.0818   80.3801   13.5674 C.ar    1  UNL1        0.0295
     16 C          62.6834   80.0874   12.2249 C.ar    1  UNL1        0.1424
     17 F          62.2737   78.8567   11.4716 F       1  UNL1       -0.2041
     18 C          63.6948   81.0254   11.6356 C.ar    1  UNL1        0.0590
     19 C          64.1046   82.2562   12.3888 C.ar    1  UNL1        0.1408
     20 F          65.1159   83.1942   11.7995 F       1  UNL1       -0.2043
     21 C          64.3225   85.0104   15.2379 C.3     1  UNL1        0.1679
     22 N          63.2980   85.8019   15.9954 N.ar    1  UNL1       -0.2078
     23 C          63.4326   87.2314   16.4296 C.ar    1  UNL1        0.2216
     24 N          62.1768   87.6160   17.1542 N.ar    1  UNL1       -0.1048
     25 N          61.2661   86.4241   17.1679 N.ar    1  UNL1       -0.0226
     26 N          61.9591   85.3030   16.4517 N.ar    1  UNL1       -0.0428
     27 C          61.1919   88.0645    8.9631 C.1     1  UNL1       -0.0582
     28 C          60.6477   88.9215    7.8588 C.1     1  UNL1       -0.0597
     29 C          60.1035   89.7784    6.7545 C.ar    1  UNL1        0.0422
     30 C          61.0419   90.4848    5.8215 C.ar    1  UNL1        0.0114
     31 C          60.4976   91.3417    4.7172 C.ar    1  UNL1        0.0375
     32 C          59.0151   91.4922    4.5459 C.ar    1  UNL1        0.1391
     33 C          58.0767   90.7858    5.4788 C.ar    1  UNL1        0.0375
     34 C          58.6209   89.9289    6.5831 C.ar    1  UNL1        0.0114
     35 O          58.4709   92.3491    3.4415 O.3     1  UNL1       -0.4706
     36 C          59.2567   93.5289    2.9510 C.3     1  UNL1        0.2320
     37 C          59.9771   93.4565    1.6372 C.ar    1  UNL1        0.0211
     38 C          61.4701   93.3156    1.6073 C.ar    1  UNL1       -0.0007
     39 C          62.1904   93.2432    0.2936 C.ar    1  UNL1        0.0036
     40 C          61.4176   93.3117   -0.9902 C.ar    1  UNL1        0.0714
     41 C          59.9246   93.4527   -0.9603 C.ar    1  UNL1        0.0036
     42 C          59.2043   93.5250    0.3534 C.ar    1  UNL1       -0.0007
     43 C          62.1380   93.2394   -2.3040 C.3     1  UNL1        0.4186
     44 F          62.8584   93.1670   -3.6176 F       1  UNL1       -0.1659
     45 F          60.8227   93.2387   -3.0251 F       1  UNL1       -0.1659
     46 F          63.4532   93.2400   -1.5828 F       1  UNL1       -0.1659
@<TRIPOS>BOND
     1    10    11    1
     2    11    21    1
     3    21    22    1
     4    22    23   ar
     5    23    24   ar
     6    24    25   ar
     7    25    26   ar
     8    11    13    1
     9    13    14   ar
    10    14    15   ar
    11    15    16   ar
    12    16    17    1
    13    16    18   ar
    14    18    19   ar
    15    19    20    1
    16    11     7    1
    17     7     8    1
    18     7     9    1
    19     7     1    1
    20     1     2   ar
    21     2     3   ar
    22     3     4   ar
    23     4    27    1
    24    27    28    3
    25    28    29    1
    26    29    30   ar
    27    30    31   ar
    28    31    32   ar
    29    32    35    1
    30    35    36    1
    31    36    37    1
    32    37    38   ar
    33    38    39   ar
    34    39    40   ar
    35    40    43    1
    36    43    44    1
    37    43    45    1
    38    43    46    1
    39    40    41   ar
    40    41    42   ar
    41    32    33   ar
    42    33    34   ar
    43     4     5   ar
    44     5     6   ar
    45    26    22   ar
    46    19    13   ar
    47     6     1   ar
    48    34    29   ar
    49    42    37   ar
    50    10    12    1
@<TRIPOS>MOLECULE
*****
 46 50 0 0 0
SMALL
GASTEIGER

@<TRIPOS>ATOM
      1 C          62.5084   85.8268   11.6959 C.ar    1  UNL1        0.1218
      2 C          62.2121   85.2268   10.3535 C.ar    1  UNL1        0.0208
      3 C          61.7065   86.0945    9.2392 C.ar    1  UNL1        0.0112
      4 C          61.4971   87.5622    9.4675 C.ar    1  UNL1        0.0611
      5 C          61.7935   88.1622   10.8100 C.ar    1  UNL1        0.1068
      6 N          62.2991   87.2945   11.9242 N.ar    1  UNL1       -0.2421
      7 C          63.0141   84.9591   12.8102 C.3     1  UNL1        0.3254
      8 F          64.2314   84.6269   11.9990 F       1  UNL1       -0.1949
      9 F          61.7107   85.4914   13.3275 F       1  UNL1       -0.1949
     10 O          64.0254   83.2238   15.0385 O.3     1  UNL1       -0.3755
     11 C          63.5197   84.0914   13.9243 C.3     1  UNL1        0.1932
     12 H          64.3037   83.7814   15.7818 H       1  UNL1        0.2110
     13 C          63.4683   85.2628   14.8599 C.ar    1  UNL1        0.0368
     14 C          64.2160   86.5204   14.5290 C.ar    1  UNL1        0.0028
     15 C          64.1646   87.6917   15.4645 C.ar    1  UNL1        0.0295
     16 C          63.3654   87.6055   16.7310 C.ar    1  UNL1        0.1424
     17 F          63.3139   88.7769   17.6665 F       1  UNL1       -0.2041
     18 C          62.6177   86.3480   17.0619 C.ar    1  UNL1        0.0590
     19 C          62.6691   85.1766   16.1263 C.ar    1  UNL1        0.1408
     20 F          61.9214   83.9191   16.4572 F       1  UNL1       -0.2043
     21 C          63.5712   82.9200   12.9888 C.3     1  UNL1        0.1679
     22 N          62.7290   81.7082   13.2572 N.ar    1  UNL1       -0.2078
     23 C          62.9240   80.3480   12.6557 C.ar    1  UNL1        0.2216
     24 N          61.8594   79.4429   13.2010 N.ar    1  UNL1       -0.1048
     25 N          61.0064   80.2438   14.1397 N.ar    1  UNL1       -0.0226
     26 N          61.5438   81.6438   14.1744 N.ar    1  UNL1       -0.0428
     27 C          60.9915   88.4299    8.3533 C.1     1  UNL1       -0.0582
     28 C          60.4859   89.2976    7.2392 C.1     1  UNL1       -0.0597
     29 C          59.9803   90.1653    6.1249 C.ar    1  UNL1        0.0422
     30 C          60.9461   90.7811    5.1565 C.ar    1  UNL1        0.0114
     31 C          60.4405   91.6487    4.0423 C.ar    1  UNL1        0.0375
     32 C          58.9690   91.9006    3.8965 C.ar    1  UNL1        0.1391
     33 C          58.0031   91.2847    4.8649 C.ar    1  UNL1        0.0375
     34 C          58.5088   90.4171    5.9791 C.ar    1  UNL1        0.0114
     35 O          58.4633   92.7683    2.7823 O.3     1  UNL1       -0.4706
     36 C          59.4161   93.2953    1.7506 C.3     1  UNL1        0.2320
     37 C          59.0648   93.2148    0.2945 C.ar    1  UNL1        0.0211
     38 C          60.0721   93.6127   -0.7432 C.ar    1  UNL1       -0.0007
     39 C          59.7208   93.5322   -2.1992 C.ar    1  UNL1        0.0036
     40 C          58.3620   93.0539   -2.6175 C.ar    1  UNL1        0.0714
     41 C          57.3547   92.6560   -1.5798 C.ar    1  UNL1        0.0036
     42 C          57.7060   92.7364   -0.1238 C.ar    1  UNL1       -0.0007
     43 C          58.0107   92.9734   -4.0736 C.3     1  UNL1        0.4186
     44 F          57.6594   92.8930   -5.5296 F       1  UNL1       -0.1659
     45 F          56.7007   92.3327   -3.7221 F       1  UNL1       -0.1659
     46 F          59.3206   93.6141   -4.4250 F       1  UNL1       -0.1659
@<TRIPOS>BOND
     1    10    11    1
     2    11    21    1
     3    21    22    1
     4    22    23   ar
     5    23    24   ar
     6    24    25   ar
     7    25    26   ar
     8    11    13    1
     9    13    14   ar
    10    14    15   ar
    11    15    16   ar
    12    16    17    1
    13    16    18   ar
    14    18    19   ar
    15    19    20    1
    16    11     7    1
    17     7     8    1
    18     7     9    1
    19     7     1    1
    20     1     2   ar
    21     2     3   ar
    22     3     4   ar
    23     4    27    1
    24    27    28    3
    25    28    29    1
    26    29    30   ar
    27    30    31   ar
    28    31    32   ar
    29    32    35    1
    30    35    36    1
    31    36    37    1
    32    37    38   ar
    33    38    39   ar
    34    39    40   ar
    35    40    43    1
    36    43    44    1
    37    43    45    1
    38    43    46    1
    39    40    41   ar
    40    41    42   ar
    41    32    33   ar
    42    33    34   ar
    43     4     5   ar
    44     5     6   ar
    45    26    22   ar
    46    19    13   ar
    47     6     1   ar
    48    34    29   ar
    49    42    37   ar
    50    10    12    1
@<TRIPOS>MOLECULE
*****
 46 50 0 0 0
SMALL
GASTEIGER

@<TRIPOS>ATOM
      1 C          62.4176   85.4818   11.9934 C.ar    1  UNL1        0.1218
      2 C          62.0182   84.8922   10.6733 C.ar    1  UNL1        0.0208
      3 C          61.5491   85.7861    9.5637 C.ar    1  UNL1        0.0112
      4 C          61.4795   87.2696    9.7744 C.ar    1  UNL1        0.0611
      5 C          61.8790   87.8592   11.0946 C.ar    1  UNL1        0.1068
      6 N          62.3480   86.9653   12.2040 N.ar    1  UNL1       -0.2421
      7 C          62.8867   84.5879   13.1029 C.3     1  UNL1        0.3254
      8 F          64.0708   84.1827   12.2759 F       1  UNL1       -0.1949
      9 F          61.6243   85.1973   13.6368 F       1  UNL1       -0.1949
     10 O          63.8248   82.8001   15.3218 O.3     1  UNL1       -0.3755
     11 C          63.3557   83.6940   14.2124 C.3     1  UNL1        0.1932
     12 H          64.0876   83.3406   16.0833 H       1  UNL1        0.2110
     13 C          63.2886   84.8469   15.1696 C.ar    1  UNL1        0.0368
     14 C          62.2326   84.8770   16.2346 C.ar    1  UNL1        0.0028
     15 C          62.1655   86.0298   17.1918 C.ar    1  UNL1        0.0295
     16 C          63.1543   87.1527   17.0841 C.ar    1  UNL1        0.1424
     17 F          63.0872   88.3055   18.0414 F       1  UNL1       -0.2041
     18 C          64.2102   87.1226   16.0192 C.ar    1  UNL1        0.0590
     19 C          64.2774   85.9697   15.0619 C.ar    1  UNL1        0.1408
     20 F          65.3333   85.9396   13.9970 F       1  UNL1       -0.2043
     21 C          63.4229   82.5410   13.2551 C.3     1  UNL1        0.1679
     22 N          62.5203   81.3577   13.4418 N.ar    1  UNL1       -0.2078
     23 C          62.7592   79.9744   12.9131 C.ar    1  UNL1        0.2216
     24 N          61.6068   79.1117   13.3345 N.ar    1  UNL1       -0.1048
     25 N          60.6556   79.9618   14.1236 N.ar    1  UNL1       -0.0226
     26 N          61.2202   81.3499   14.1899 N.ar    1  UNL1       -0.0428
     27 C          61.0105   88.1635    8.6649 C.1     1  UNL1       -0.0582
     28 C          60.5415   89.0574    7.5555 C.1     1  UNL1       -0.0597
     29 C          60.0724   89.9513    6.4460 C.ar    1  UNL1        0.0422
     30 C          61.0687   90.5809    5.5181 C.ar    1  UNL1        0.0114
     31 C          60.5996   91.4748    4.4087 C.ar    1  UNL1        0.0375
     32 C          59.1343   91.7390    4.2270 C.ar    1  UNL1        0.1391
     33 C          58.1380   91.1093    5.1548 C.ar    1  UNL1        0.0375
     34 C          58.6071   90.2154    6.2643 C.ar    1  UNL1        0.0114
     35 O          58.6653   92.6329    3.1175 O.3     1  UNL1       -0.4706
     36 C          59.5527   93.7325    2.6143 C.3     1  UNL1        0.2320
     37 C          60.2073   93.6122    1.2700 C.ar    1  UNL1        0.0211
     38 C          61.6511   93.9827    1.1030 C.ar    1  UNL1       -0.0007
     39 C          62.3056   93.8623   -0.2413 C.ar    1  UNL1        0.0036
     40 C          61.5162   93.3715   -1.4186 C.ar    1  UNL1        0.0714
     41 C          60.0724   93.0011   -1.2516 C.ar    1  UNL1        0.0036
     42 C          59.4179   93.1214    0.0927 C.ar    1  UNL1       -0.0007
     43 C          62.1708   93.2512   -2.7629 C.3     1  UNL1        0.4186
     44 F          62.8253   93.1309   -4.1072 F       1  UNL1       -0.1659
     45 F          63.5047   93.0810   -2.0982 F       1  UNL1       -0.1659
     46 F          60.8370   93.4214   -3.4276 F       1  UNL1       -0.1659
@<TRIPOS>BOND
     1    10    11    1
     2    11    21    1
     3    21    22    1
     4    22    23   ar
     5    23    24   ar
     6    24    25   ar
     7    25    26   ar
     8    11    13    1
     9    13    14   ar
    10    14    15   ar
    11    15    16   ar
    12    16    17    1
    13    16    18   ar
    14    18    19   ar
    15    19    20    1
    16    11     7    1
    17     7     8    1
    18     7     9    1
    19     7     1    1
    20     1     2   ar
    21     2     3   ar
    22     3     4   ar
    23     4    27    1
    24    27    28    3
    25    28    29    1
    26    29    30   ar
    27    30    31   ar
    28    31    32   ar
    29    32    35    1
    30    35    36    1
    31    36    37    1
    32    37    38   ar
    33    38    39   ar
    34    39    40   ar
    35    40    43    1
    36    43    44    1
    37    43    45    1
    38    43    46    1
    39    40    41   ar
    40    41    42   ar
    41    32    33   ar
    42    33    34   ar
    43     4     5   ar
    44     5     6   ar
    45    26    22   ar
    46    19    13   ar
    47     6     1   ar
    48    34    29   ar
    49    42    37   ar
    50    10    12    1
