@<TRIPOS>MOLECULE
*****
 31 33 0 0 0
SMALL
GASTEIGER

@<TRIPOS>ATOM
      1 C          63.1625   89.5523   12.1162 C.ar    1  UNL1        0.0942
      2 C          63.2960   90.4257   10.9040 C.ar    1  UNL1        0.1078
      3 N          64.0881   91.6972   10.9793 N.ar    1  UNL1       -0.2119
      4 C          64.7468   92.0955   12.2668 C.ar    1  UNL1        0.2207
      5 N          64.6134   91.2221   13.4790 N.ar    1  UNL1       -0.2094
      6 C          63.8212   89.9505   13.4037 C.ar    1  UNL1        0.1613
      7 O          60.8787   88.3341   11.8932 O.2     1  UNL1       -0.2700
      8 C          62.3704   88.2808   12.0410 C.2     1  UNL1        0.2488
      9 N          63.0701   86.9559   12.1135 N.am    1  UNL1       -0.3008
     10 H          64.0491   86.9209   12.2105 H       1  UNL1        0.1497
     11 C          62.2779   85.6844   12.0383 C.3     1  UNL1        0.0898
     12 C          62.7130   84.4821   12.8229 C.3     1  UNL1        0.0246
     13 C          62.6661   83.1203   12.1960 C.3     1  UNL1        0.0338
     14 C          63.1011   81.9182   12.9806 C.3     1  UNL1        0.1422
     15 O          63.5829   82.0779   14.3921 O.3     1  UNL1       -0.3538
     16 C          63.6298   83.4398   15.0190 C.3     1  UNL1        0.1422
     17 C          63.1948   84.6419   14.2344 C.3     1  UNL1        0.0338
     18 C          63.6878   89.0771   14.6159 C.3     1  UNL1        0.4351
     19 F          63.5543   88.2038   15.8281 F       1  UNL1       -0.1644
     20 F          64.8761   88.2775   14.1706 F       1  UNL1       -0.1644
     21 F          62.4994   89.8768   15.0612 F       1  UNL1       -0.1644
     22 N          65.5389   93.3670   12.3420 N.pl3   1  UNL1       -0.2808
     23 H          65.5105   93.9171   13.1580 H       1  UNL1        0.1551
     24 C          66.3744   93.8004   11.1740 C.ar    1  UNL1        0.0791
     25 C          67.2016   92.7949   10.4294 C.ar    1  UNL1        0.0284
     26 C          68.0370   93.2284    9.2614 C.ar    1  UNL1        0.0590
     27 CL         68.8643   92.2227    8.5168 Cl      1  UNL1       -0.0822
     28 C          68.0452   94.6673    8.8381 C.ar    1  UNL1        0.0138
     29 C          67.2180   95.6729    9.5827 C.ar    1  UNL1        0.0318
     30 C          66.3826   95.2394   10.7507 C.ar    1  UNL1        0.1535
     31 F          65.5553   96.2450   11.4954 F       1  UNL1       -0.2029
@<TRIPOS>BOND
     1     7     8    2
     2     8     9   am
     3     9    11    1
     4    11    12    1
     5    12    13    1
     6    13    14    1
     7    14    15    1
     8    15    16    1
     9    16    17    1
    10     8     1    1
    11     1     2   ar
    12     2     3   ar
    13     3     4   ar
    14     4    22    1
    15    22    24    1
    16    24    25   ar
    17    25    26   ar
    18    26    27    1
    19    26    28   ar
    20    28    29   ar
    21    29    30   ar
    22    30    31    1
    23     4     5   ar
    24     5     6   ar
    25     6    18    1
    26    18    19    1
    27    18    20    1
    28    18    21    1
    29    17    12    1
    30     6     1   ar
    31    30    24   ar
    32     9    10    1
    33    22    23    1
@<TRIPOS>MOLECULE
*****
 31 33 0 0 0
SMALL
GASTEIGER

@<TRIPOS>ATOM
      1 C          63.0633   89.2086   12.1404 C.ar    1  UNL1        0.0942
      2 C          63.9893   89.4425   13.2970 C.ar    1  UNL1        0.1078
      3 N          64.7466   90.7330   13.4024 N.ar    1  UNL1       -0.2119
      4 C          64.5778   91.7897   12.3512 C.ar    1  UNL1        0.2207
      5 N          63.6518   91.5558   11.1945 N.ar    1  UNL1       -0.2094
      6 C          62.8946   90.2652   11.0892 C.ar    1  UNL1        0.1613
      7 O          60.8268   87.9346   11.7871 O.2     1  UNL1       -0.2700
      8 C          62.3061   87.9181   12.0350 C.2     1  UNL1        0.2488
      9 N          63.0281   86.6110   12.1775 N.am    1  UNL1       -0.3008
     10 H          63.9990   86.6002   12.3402 H       1  UNL1        0.1497
     11 C          62.2709   85.3205   12.0721 C.3     1  UNL1        0.0898
     12 C          62.7436   84.1102   12.8216 C.3     1  UNL1        0.0246
     13 C          62.6623   82.7546   12.1847 C.3     1  UNL1        0.0338
     14 C          63.1350   81.5443   12.9341 C.3     1  UNL1        0.1422
     15 O          63.6889   81.6896   14.3205 O.3     1  UNL1       -0.3538
     16 C          63.7702   83.0452   14.9574 C.3     1  UNL1        0.1422
     17 C          63.2975   84.2555   14.2079 C.3     1  UNL1        0.0338
     18 C          61.9685   90.0313    9.9325 C.3     1  UNL1        0.4351
     19 F          61.0425   89.7974    8.7759 F       1  UNL1       -0.1644
     20 F          62.9412   89.0474    9.3528 F       1  UNL1       -0.1644
     21 F          60.9959   91.0151   10.5123 F       1  UNL1       -0.1644
     22 N          65.3351   93.0802   12.4566 N.pl3   1  UNL1       -0.2808
     23 H          65.2477   93.6378   13.2632 H       1  UNL1        0.1551
     24 C          66.2256   93.5212   11.3329 C.ar    1  UNL1        0.0791
     25 C          67.0378   92.5106   10.5788 C.ar    1  UNL1        0.0284
     26 C          67.9283   92.9516    9.4551 C.ar    1  UNL1        0.0590
     27 CL         68.7406   91.9408    8.7010 Cl      1  UNL1       -0.0822
     28 C          68.0065   94.4032    9.0857 C.ar    1  UNL1        0.0138
     29 C          67.1943   95.4138    9.8398 C.ar    1  UNL1        0.0318
     30 C          66.3038   94.9728   10.9634 C.ar    1  UNL1        0.1535
     31 F          65.4915   95.9836   11.7176 F       1  UNL1       -0.2029
@<TRIPOS>BOND
     1     7     8    2
     2     8     9   am
     3     9    11    1
     4    11    12    1
     5    12    13    1
     6    13    14    1
     7    14    15    1
     8    15    16    1
     9    16    17    1
    10     8     1    1
    11     1     2   ar
    12     2     3   ar
    13     3     4   ar
    14     4    22    1
    15    22    24    1
    16    24    25   ar
    17    25    26   ar
    18    26    27    1
    19    26    28   ar
    20    28    29   ar
    21    29    30   ar
    22    30    31    1
    23     4     5   ar
    24     5     6   ar
    25     6    18    1
    26    18    19    1
    27    18    20    1
    28    18    21    1
    29    17    12    1
    30     6     1   ar
    31    30    24   ar
    32     9    10    1
    33    22    23    1
@<TRIPOS>MOLECULE
*****
 31 33 0 0 0
SMALL
GASTEIGER

@<TRIPOS>ATOM
      1 C          63.5675   89.3273   12.7044 C.ar    1  UNL1        0.0942
      2 C          63.1042   88.1031   11.9719 C.ar    1  UNL1        0.1078
      3 N          63.1719   86.7605   12.6372 N.ar    1  UNL1       -0.2119
      4 C          63.7030   86.6420   14.0351 C.ar    1  UNL1        0.2207
      5 N          64.1663   87.8662   14.7676 N.ar    1  UNL1       -0.2094
      6 C          64.0985   89.2089   14.1022 C.ar    1  UNL1        0.1613
      7 O          62.1826   91.2037   11.5593 O.2     1  UNL1       -0.2700
      8 C          63.4998   90.6700   12.0391 C.2     1  UNL1        0.2488
      9 N          64.7493   91.4790   11.8536 N.am    1  UNL1       -0.3008
     10 H          65.6138   91.1287   12.1685 H       1  UNL1        0.1497
     11 C          64.6816   92.8217   11.1883 C.3     1  UNL1        0.0898
     12 C          65.9153   93.4208   10.5808 C.3     1  UNL1        0.0246
     13 C          66.0208   94.9071   10.4089 C.3     1  UNL1        0.0338
     14 C          67.2545   95.5061    9.8014 C.3     1  UNL1        0.1422
     15 O          68.3827   94.6188    9.3657 O.3     1  UNL1       -0.3538
     16 C          68.2772   93.1325    9.5376 C.3     1  UNL1        0.1422
     17 C          67.0435   92.5334   10.1451 C.3     1  UNL1        0.0338
     18 C          64.5618   90.4332   14.8348 C.3     1  UNL1        0.4351
     19 F          65.0251   91.6574   15.5673 F       1  UNL1       -0.1644
     20 F          63.1571   90.6900   15.2939 F       1  UNL1       -0.1644
     21 F          65.9665   90.1763   14.3756 F       1  UNL1       -0.1644
     22 N          63.7707   85.2993   14.7004 N.pl3   1  UNL1       -0.2808
     23 H          64.0420   85.2308   15.6443 H       1  UNL1        0.1551
     24 C          63.4252   84.0611   13.9275 C.ar    1  UNL1        0.0791
     25 C          64.0140   83.8379   12.5661 C.ar    1  UNL1        0.0284
     26 C          63.6685   82.5996   11.7933 C.ar    1  UNL1        0.0590
     27 CL         64.2574   82.3765   10.4319 Cl      1  UNL1       -0.0822
     28 C          62.7341   81.5845   12.3818 C.ar    1  UNL1        0.0138
     29 C          62.1453   81.8077   13.7432 C.ar    1  UNL1        0.0318
     30 C          62.4908   83.0460   14.5161 C.ar    1  UNL1        0.1535
     31 F          61.9019   83.2691   15.8775 F       1  UNL1       -0.2029
@<TRIPOS>BOND
     1     7     8    2
     2     8     9   am
     3     9    11    1
     4    11    12    1
     5    12    13    1
     6    13    14    1
     7    14    15    1
     8    15    16    1
     9    16    17    1
    10     8     1    1
    11     1     2   ar
    12     2     3   ar
    13     3     4   ar
    14     4    22    1
    15    22    24    1
    16    24    25   ar
    17    25    26   ar
    18    26    27    1
    19    26    28   ar
    20    28    29   ar
    21    29    30   ar
    22    30    31    1
    23     4     5   ar
    24     5     6   ar
    25     6    18    1
    26    18    19    1
    27    18    20    1
    28    18    21    1
    29    17    12    1
    30     6     1   ar
    31    30    24   ar
    32     9    10    1
    33    22    23    1
@<TRIPOS>MOLECULE
*****
 31 33 0 0 0
SMALL
GASTEIGER

@<TRIPOS>ATOM
      1 C          63.6971   89.6361   12.7496 C.ar    1  UNL1        0.0942
      2 C          63.9161   88.4336   13.6192 C.ar    1  UNL1        0.1078
      3 N          63.3008   87.1172   13.2475 N.ar    1  UNL1       -0.2119
      4 C          62.4663   87.0031   12.0062 C.ar    1  UNL1        0.2207
      5 N          62.2474   88.2055   11.1366 N.ar    1  UNL1       -0.2094
      6 C          62.8628   89.5221   11.5083 C.ar    1  UNL1        0.1613
      7 O          64.0561   91.5447   14.4754 O.2     1  UNL1       -0.2700
      8 C          64.3125   90.9525   13.1213 C.2     1  UNL1        0.2488
      9 N          65.1844   91.6769   12.1388 N.am    1  UNL1       -0.3008
     10 H          65.3527   91.2883   11.2501 H       1  UNL1        0.1497
     11 C          65.7998   92.9934   12.5105 C.3     1  UNL1        0.0898
     12 C          66.3567   93.8889   11.4437 C.3     1  UNL1        0.0246
     13 C          66.1826   95.3752   11.5458 C.3     1  UNL1        0.0338
     14 C          66.7395   96.2706   10.4790 C.3     1  UNL1        0.1422
     15 O          67.4705   95.6796    9.3101 O.3     1  UNL1       -0.3538
     16 C          67.6447   94.1933    9.2079 C.3     1  UNL1        0.1422
     17 C          67.0877   93.2979   10.2747 C.3     1  UNL1        0.0338
     18 C          62.6438   90.7245   10.6387 C.3     1  UNL1        0.4351
     19 F          62.4248   91.9269    9.7692 F       1  UNL1       -0.1644
     20 F          61.4107   91.0661   11.4216 F       1  UNL1       -0.1644
     21 F          63.8769   90.3829    9.8559 F       1  UNL1       -0.1644
     22 N          61.8510   85.6866   11.6345 N.pl3   1  UNL1       -0.2808
     23 H          60.8862   85.6298   11.4467 H       1  UNL1        0.1551
     24 C          62.7055   84.4568   11.5489 C.ar    1  UNL1        0.0791
     25 C          62.7957   83.5233   12.7195 C.ar    1  UNL1        0.0284
     26 C          63.6502   82.2934   12.6340 C.ar    1  UNL1        0.0590
     27 CL         63.7403   81.3599   13.8047 Cl      1  UNL1       -0.0822
     28 C          64.4144   81.9971   11.3778 C.ar    1  UNL1        0.0138
     29 C          64.3242   82.9306   10.2072 C.ar    1  UNL1        0.0318
     30 C          63.4697   84.1605   10.2928 C.ar    1  UNL1        0.1535
     31 F          63.3796   85.0940    9.1221 F       1  UNL1       -0.2029
@<TRIPOS>BOND
     1     7     8    2
     2     8     9   am
     3     9    11    1
     4    11    12    1
     5    12    13    1
     6    13    14    1
     7    14    15    1
     8    15    16    1
     9    16    17    1
    10     8     1    1
    11     1     2   ar
    12     2     3   ar
    13     3     4   ar
    14     4    22    1
    15    22    24    1
    16    24    25   ar
    17    25    26   ar
    18    26    27    1
    19    26    28   ar
    20    28    29   ar
    21    29    30   ar
    22    30    31    1
    23     4     5   ar
    24     5     6   ar
    25     6    18    1
    26    18    19    1
    27    18    20    1
    28    18    21    1
    29    17    12    1
    30     6     1   ar
    31    30    24   ar
    32     9    10    1
    33    22    23    1
@<TRIPOS>MOLECULE
*****
 31 33 0 0 0
SMALL
GASTEIGER

@<TRIPOS>ATOM
      1 C          64.0941   89.7062   13.5278 C.ar    1  UNL1        0.0942
      2 C          64.5826   88.6893   14.5164 C.ar    1  UNL1        0.1078
      3 N          64.1412   87.2603   14.4027 N.ar    1  UNL1       -0.2119
      4 C          63.2111   86.8481   13.3003 C.ar    1  UNL1        0.2207
      5 N          62.7226   87.8650   12.3117 N.ar    1  UNL1       -0.2094
      6 C          63.1641   89.2941   12.4255 C.ar    1  UNL1        0.1613
      7 O          64.1938   91.9305   14.8666 O.2     1  UNL1       -0.2700
      8 C          64.5356   91.1352   13.6416 C.2     1  UNL1        0.2488
      9 N          65.3190   91.7689   12.5304 N.am    1  UNL1       -0.3008
     10 H          65.5434   91.2469   11.7264 H       1  UNL1        0.1497
     11 C          65.7605   93.1979   12.6441 C.3     1  UNL1        0.0898
     12 C          66.3699   93.8911   11.4616 C.3     1  UNL1        0.0246
     13 C          66.2282   95.3764   11.3079 C.3     1  UNL1        0.0338
     14 C          66.8375   96.0695   10.1254 C.3     1  UNL1        0.1422
     15 O          67.5885   95.2772    9.0967 O.3     1  UNL1       -0.3538
     16 C          67.7302   93.7919    9.2504 C.3     1  UNL1        0.1422
     17 C          67.1209   93.0988   10.4329 C.3     1  UNL1        0.0338
     18 C          62.6756   90.3109   11.4369 C.3     1  UNL1        0.4351
     19 F          62.1871   91.3278   10.4483 F       1  UNL1       -0.1644
     20 F          61.4937   90.5969   12.3151 F       1  UNL1       -0.1644
     21 F          63.8575   90.0250   10.5587 F       1  UNL1       -0.1644
     22 N          62.7696   85.4191   13.1865 N.pl3   1  UNL1       -0.2808
     23 H          62.1886   85.0269   13.8778 H       1  UNL1        0.1551
     24 C          63.2134   84.5876   12.0196 C.ar    1  UNL1        0.0791
     25 C          62.8960   85.0279   10.6212 C.ar    1  UNL1        0.0284
     26 C          63.3398   84.1964    9.4542 C.ar    1  UNL1        0.0590
     27 CL         63.0224   84.6367    8.0558 Cl      1  UNL1       -0.0822
     28 C          64.1008   82.9247    9.6856 C.ar    1  UNL1        0.0138
     29 C          64.4181   82.4845   11.0840 C.ar    1  UNL1        0.0318
     30 C          63.9744   83.3160   12.2510 C.ar    1  UNL1        0.1535
     31 F          64.2917   82.8757   13.6494 F       1  UNL1       -0.2029
@<TRIPOS>BOND
     1     7     8    2
     2     8     9   am
     3     9    11    1
     4    11    12    1
     5    12    13    1
     6    13    14    1
     7    14    15    1
     8    15    16    1
     9    16    17    1
    10     8     1    1
    11     1     2   ar
    12     2     3   ar
    13     3     4   ar
    14     4    22    1
    15    22    24    1
    16    24    25   ar
    17    25    26   ar
    18    26    27    1
    19    26    28   ar
    20    28    29   ar
    21    29    30   ar
    22    30    31    1
    23     4     5   ar
    24     5     6   ar
    25     6    18    1
    26    18    19    1
    27    18    20    1
    28    18    21    1
    29    17    12    1
    30     6     1   ar
    31    30    24   ar
    32     9    10    1
    33    22    23    1
@<TRIPOS>MOLECULE
*****
 31 33 0 0 0
SMALL
GASTEIGER

@<TRIPOS>ATOM
      1 C          63.0778   89.2236   12.1400 C.ar    1  UNL1        0.0942
      2 C          64.0145   89.4486   13.2897 C.ar    1  UNL1        0.1078
      3 N          64.7856   90.7314   13.3890 N.ar    1  UNL1       -0.2119
      4 C          64.6198   91.7893   12.3385 C.ar    1  UNL1        0.2207
      5 N          63.6831   91.5643   11.1888 N.ar    1  UNL1       -0.2094
      6 C          62.9120   90.2814   11.0896 C.ar    1  UNL1        0.1613
      7 O          60.8261   87.9722   11.8026 O.2     1  UNL1       -0.2700
      8 C          62.3067   87.9408   12.0408 C.2     1  UNL1        0.2488
      9 N          63.0163   86.6265   12.1797 N.am    1  UNL1       -0.3008
     10 H          63.9881   86.6059   12.3360 H       1  UNL1        0.1497
     11 C          62.2453   85.3437   12.0805 C.3     1  UNL1        0.0898
     12 C          62.7168   84.1262   12.8190 C.3     1  UNL1        0.0246
     13 C          63.2303   84.2525   14.2227 C.3     1  UNL1        0.0338
     14 C          63.7017   83.0350   14.9612 C.3     1  UNL1        0.1422
     15 O          63.6597   81.6912   14.2960 O.3     1  UNL1       -0.3538
     16 C          63.1463   81.5649   12.8923 C.3     1  UNL1        0.1422
     17 C          62.6748   82.7824   12.1538 C.3     1  UNL1        0.0338
     18 C          61.9752   90.0564    9.9399 C.3     1  UNL1        0.4351
     19 F          61.0384   89.8314    8.7901 F       1  UNL1       -0.1644
     20 F          62.9700   89.1260    9.3114 F       1  UNL1       -0.1644
     21 F          60.9805   90.9867   10.5683 F       1  UNL1       -0.1644
     22 N          65.3909   93.0721   12.4377 N.pl3   1  UNL1       -0.2808
     23 H          65.4320   93.5567   13.2936 H       1  UNL1        0.1551
     24 C          66.0992   93.6165   11.2328 C.ar    1  UNL1        0.0791
     25 C          65.6583   94.9159   10.6270 C.ar    1  UNL1        0.0284
     26 C          66.3667   95.4603    9.4221 C.ar    1  UNL1        0.0590
     27 CL         65.9256   96.7598    8.8163 Cl      1  UNL1       -0.0822
     28 C          67.5160   94.7053    8.8230 C.ar    1  UNL1        0.0138
     29 C          67.9570   93.4059    9.4288 C.ar    1  UNL1        0.0318
     30 C          67.2486   92.8615   10.6337 C.ar    1  UNL1        0.1535
     31 F          67.6896   91.5620   11.2395 F       1  UNL1       -0.2029
@<TRIPOS>BOND
     1     7     8    2
     2     8     9   am
     3     9    11    1
     4    11    12    1
     5    12    13    1
     6    13    14    1
     7    14    15    1
     8    15    16    1
     9    16    17    1
    10     8     1    1
    11     1     2   ar
    12     2     3   ar
    13     3     4   ar
    14     4    22    1
    15    22    24    1
    16    24    25   ar
    17    25    26   ar
    18    26    27    1
    19    26    28   ar
    20    28    29   ar
    21    29    30   ar
    22    30    31    1
    23     4     5   ar
    24     5     6   ar
    25     6    18    1
    26    18    19    1
    27    18    20    1
    28    18    21    1
    29    17    12    1
    30     6     1   ar
    31    30    24   ar
    32     9    10    1
    33    22    23    1
@<TRIPOS>MOLECULE
*****
 31 33 0 0 0
SMALL
GASTEIGER

@<TRIPOS>ATOM
      1 C          63.3454   86.9134   12.9431 C.ar    1  UNL1        0.0942
      2 C          63.0190   88.1876   12.2221 C.ar    1  UNL1        0.1078
      3 N          63.2438   89.5090   12.8953 N.ar    1  UNL1       -0.2119
      4 C          63.7950   89.5562   14.2897 C.ar    1  UNL1        0.2207
      5 N          64.1214   88.2820   15.0106 N.ar    1  UNL1       -0.2094
      6 C          63.8966   86.9605   14.3373 C.ar    1  UNL1        0.1613
      7 O          61.8525   85.3445   11.5079 O.2     1  UNL1       -0.2700
      8 C          63.1206   85.5919   12.2699 C.2     1  UNL1        0.2488
      9 N          64.1639   84.5178   12.3587 N.am    1  UNL1       -0.3008
     10 H          64.9962   84.6802   12.8588 H       1  UNL1        0.1497
     11 C          63.9391   83.1964   11.6854 C.3     1  UNL1        0.0898
     12 C          63.1570   82.1229   12.3825 C.3     1  UNL1        0.0246
     13 C          62.3710   82.4496   13.6177 C.3     1  UNL1        0.0338
     14 C          61.5889   81.3762   14.3147 C.3     1  UNL1        0.1422
     15 O          61.5928   79.9760   13.7767 O.3     1  UNL1       -0.3538
     16 C          62.3787   79.6493   12.5415 C.3     1  UNL1        0.1422
     17 C          63.1608   80.7228   11.8445 C.3     1  UNL1        0.0338
     18 C          64.2230   85.6863   15.0583 C.3     1  UNL1        0.4351
     19 F          64.5494   84.4121   15.7793 F       1  UNL1       -0.1644
     20 F          65.6868   85.9573   14.8746 F       1  UNL1       -0.1644
     21 F          62.7591   85.4153   15.2421 F       1  UNL1       -0.1644
     22 N          64.0198   90.8776   14.9629 N.pl3   1  UNL1       -0.2808
     23 H          63.2726   91.3343   15.4128 H       1  UNL1        0.1551
     24 C          65.3830   91.5033   14.9507 C.ar    1  UNL1        0.0791
     25 C          66.3047   91.2706   13.7904 C.ar    1  UNL1        0.0284
     26 C          67.6679   91.8963   13.7782 C.ar    1  UNL1        0.0590
     27 CL         68.5896   91.6636   12.6178 Cl      1  UNL1       -0.0822
     28 C          68.1095   92.7546   14.9263 C.ar    1  UNL1        0.0138
     29 C          67.1878   92.9873   16.0866 C.ar    1  UNL1        0.0318
     30 C          65.8246   92.3617   16.0988 C.ar    1  UNL1        0.1535
     31 F          64.9029   92.5944   17.2592 F       1  UNL1       -0.2029
@<TRIPOS>BOND
     1     7     8    2
     2     8     9   am
     3     9    11    1
     4    11    12    1
     5    12    13    1
     6    13    14    1
     7    14    15    1
     8    15    16    1
     9    16    17    1
    10     8     1    1
    11     1     2   ar
    12     2     3   ar
    13     3     4   ar
    14     4    22    1
    15    22    24    1
    16    24    25   ar
    17    25    26   ar
    18    26    27    1
    19    26    28   ar
    20    28    29   ar
    21    29    30   ar
    22    30    31    1
    23     4     5   ar
    24     5     6   ar
    25     6    18    1
    26    18    19    1
    27    18    20    1
    28    18    21    1
    29    17    12    1
    30     6     1   ar
    31    30    24   ar
    32     9    10    1
    33    22    23    1
@<TRIPOS>MOLECULE
*****
 31 33 0 0 0
SMALL
GASTEIGER

@<TRIPOS>ATOM
      1 C          63.4144   89.1379   12.7886 C.ar    1  UNL1        0.0942
      2 C          63.8331   87.8738   13.4791 C.ar    1  UNL1        0.1078
      3 N          63.2923   86.5529   13.0180 N.ar    1  UNL1       -0.2119
      4 C          62.3329   86.4960   11.8663 C.ar    1  UNL1        0.2207
      5 N          61.9142   87.7601   11.1758 N.ar    1  UNL1       -0.2094
      6 C          62.4550   89.0811   11.6370 C.ar    1  UNL1        0.1613
      7 O          63.5022   91.0398   14.5564 O.2     1  UNL1       -0.2700
      8 C          63.9552   90.4588   13.2498 C.2     1  UNL1        0.2488
      9 N          64.9490   91.1988   12.4043 N.am    1  UNL1       -0.3008
     10 H          65.2464   90.8175   11.5467 H       1  UNL1        0.1497
     11 C          65.4898   92.5198   12.8655 C.3     1  UNL1        0.0898
     12 C          66.6394   92.5648   13.8280 C.3     1  UNL1        0.0246
     13 C          66.4498   93.1505   15.1958 C.3     1  UNL1        0.0338
     14 C          67.5994   93.1955   16.1583 C.3     1  UNL1        0.1422
     15 O          68.9386   92.6548   15.7530 O.3     1  UNL1       -0.3538
     16 C          69.1281   92.0692   14.3851 C.3     1  UNL1        0.1422
     17 C          67.9786   92.0241   13.4227 C.3     1  UNL1        0.0338
     18 C          62.0364   90.3452   10.9465 C.3     1  UNL1        0.4351
     19 F          61.6177   91.6093   10.2561 F       1  UNL1       -0.1644
     20 F          60.8803   90.4792   11.8928 F       1  UNL1       -0.1644
     21 F          63.1925   90.2112   10.0003 F       1  UNL1       -0.1644
     22 N          61.7921   85.1751   11.4051 N.pl3   1  UNL1       -0.2808
     23 H          60.8654   85.1092   11.0795 H       1  UNL1        0.1551
     24 C          62.6633   83.9545   11.4401 C.ar    1  UNL1        0.0791
     25 C          62.6008   83.0218   12.6131 C.ar    1  UNL1        0.0284
     26 C          63.4720   81.8012   12.6481 C.ar    1  UNL1        0.0590
     27 CL         63.4095   80.8685   13.8212 Cl      1  UNL1       -0.0822
     28 C          64.4058   81.5135   11.5100 C.ar    1  UNL1        0.0138
     29 C          64.4683   82.4462   10.3370 C.ar    1  UNL1        0.0318
     30 C          63.5971   83.6668   10.3021 C.ar    1  UNL1        0.1535
     31 F          63.6597   84.5995    9.1290 F       1  UNL1       -0.2029
@<TRIPOS>BOND
     1     7     8    2
     2     8     9   am
     3     9    11    1
     4    11    12    1
     5    12    13    1
     6    13    14    1
     7    14    15    1
     8    15    16    1
     9    16    17    1
    10     8     1    1
    11     1     2   ar
    12     2     3   ar
    13     3     4   ar
    14     4    22    1
    15    22    24    1
    16    24    25   ar
    17    25    26   ar
    18    26    27    1
    19    26    28   ar
    20    28    29   ar
    21    29    30   ar
    22    30    31    1
    23     4     5   ar
    24     5     6   ar
    25     6    18    1
    26    18    19    1
    27    18    20    1
    28    18    21    1
    29    17    12    1
    30     6     1   ar
    31    30    24   ar
    32     9    10    1
    33    22    23    1
@<TRIPOS>MOLECULE
*****
 31 33 0 0 0
SMALL
GASTEIGER

@<TRIPOS>ATOM
      1 C          62.7667   87.0101   11.9225 C.ar    1  UNL1        0.0942
      2 C          63.5534   87.2172   13.1827 C.ar    1  UNL1        0.1078
      3 N          63.7734   88.6040   13.7102 N.ar    1  UNL1       -0.2119
      4 C          63.2067   89.7839   12.9774 C.ar    1  UNL1        0.2207
      5 N          62.4200   89.5768   11.7172 N.ar    1  UNL1       -0.2094
      6 C          62.2000   88.1899   11.1897 C.ar    1  UNL1        0.1613
      7 O          61.2715   85.2861   10.6806 O.2     1  UNL1       -0.2700
      8 C          62.5467   85.6233   11.3950 C.2     1  UNL1        0.2488
      9 N          63.6018   84.5736   11.5820 N.am    1  UNL1       -0.3008
     10 H          64.4387   84.7949   12.0509 H       1  UNL1        0.1497
     11 C          63.3817   83.1868   11.0545 C.3     1  UNL1        0.0898
     12 C          62.8881   82.1057   11.9698 C.3     1  UNL1        0.0246
     13 C          63.0001   80.6671   11.5603 C.3     1  UNL1        0.0338
     14 C          62.5065   79.5862   12.4756 C.3     1  UNL1        0.1422
     15 O          61.9007   79.9438   13.8004 O.3     1  UNL1       -0.3538
     16 C          61.7886   81.3825   14.2099 C.3     1  UNL1        0.1422
     17 C          62.2823   82.4634   13.2946 C.3     1  UNL1        0.0338
     18 C          61.4133   87.9828    9.9295 C.3     1  UNL1        0.4351
     19 F          60.6266   87.7758    8.6692 F       1  UNL1       -0.1644
     20 F          60.1421   88.2522   10.6787 F       1  UNL1       -0.1644
     21 F          62.6845   87.7134    9.1802 F       1  UNL1       -0.1644
     22 N          63.4267   91.1707   13.5049 N.pl3   1  UNL1       -0.2808
     23 H          62.6581   91.7187   13.7844 H       1  UNL1        0.1551
     24 C          64.8178   91.7225   13.6065 C.ar    1  UNL1        0.0791
     25 C          65.5320   91.7179   14.9255 C.ar    1  UNL1        0.0284
     26 C          66.9231   92.2698   15.0271 C.ar    1  UNL1        0.0590
     27 CL         67.6373   92.2652   16.3462 Cl      1  UNL1       -0.0822
     28 C          67.6000   92.8263   13.8097 C.ar    1  UNL1        0.0138
     29 C          66.8858   92.8309   12.4907 C.ar    1  UNL1        0.0318
     30 C          65.4947   92.2790   12.3891 C.ar    1  UNL1        0.1535
     31 F          64.7805   92.2836   11.0700 F       1  UNL1       -0.2029
@<TRIPOS>BOND
     1     7     8    2
     2     8     9   am
     3     9    11    1
     4    11    12    1
     5    12    13    1
     6    13    14    1
     7    14    15    1
     8    15    16    1
     9    16    17    1
    10     8     1    1
    11     1     2   ar
    12     2     3   ar
    13     3     4   ar
    14     4    22    1
    15    22    24    1
    16    24    25   ar
    17    25    26   ar
    18    26    27    1
    19    26    28   ar
    20    28    29   ar
    21    29    30   ar
    22    30    31    1
    23     4     5   ar
    24     5     6   ar
    25     6    18    1
    26    18    19    1
    27    18    20    1
    28    18    21    1
    29    17    12    1
    30     6     1   ar
    31    30    24   ar
    32     9    10    1
    33    22    23    1
