@<TRIPOS>MOLECULE
*****
 25 27 0 0 0
SMALL
GASTEIGER

@<TRIPOS>ATOM
      1 N          65.2730   92.5547   11.9683 N.pl3   1  UNL1       -0.3063
      2 C          66.0719   92.6876   13.2308 C.3     1  UNL1        0.0912
      3 C          65.8882   91.6972   14.3423 C.3     1  UNL1        0.0261
      4 C          64.9056   90.5740   14.1913 C.3     1  UNL1        0.0295
      5 C          64.1067   90.4412   12.9287 C.ar    1  UNL1       -0.0054
      6 C          63.1240   89.3179   12.7776 C.ar    1  UNL1        0.0371
      7 C          62.3252   89.1851   11.5150 C.ar    1  UNL1        0.1354
      8 C          62.5089   90.1755   10.4035 C.ar    1  UNL1        0.0414
      9 C          63.4915   91.2986   10.5546 C.ar    1  UNL1        0.0177
     10 C          64.2904   91.4315   11.8172 C.ar    1  UNL1        0.0440
     11 N          61.3425   88.0619   11.3639 N.pl3   1  UNL1       -0.1990
     12 H          60.3789   88.2331   11.4709 H       1  UNL1        0.2985
     13 C          61.8279   86.6778   11.0499 C.2     1  UNL1        0.3224
     14 N          62.3649   85.8048   12.1451 N.2     1  UNL1       -0.0985
     15 H          62.3987   86.1402   13.0701 H       1  UNL1        0.3633
     16 C          61.7764   86.1668    9.6406 C.ar    1  UNL1        0.1114
     17 C          62.8700   85.4242    8.9314 C.ar    1  UNL1        0.0144
     18 C          62.3918   85.1071    7.5456 C.ar    1  UNL1        0.0077
     19 C          61.0026   85.6536    7.3982 C.ar    1  UNL1        0.0357
     20 S          60.6224   86.3085    8.6930 S.2     1  UNL1       -0.0792
     21 C          65.4568   93.5451   10.8568 C.3     1  UNL1        0.1081
     22 C          66.6873   94.4016   10.8112 C.3     1  UNL1        0.0938
     23 C          68.4093   93.1653    9.3091 C.3     1  UNL1        0.0897
     24 N          67.5742   94.3765    9.6018 N.3     1  UNL1       -0.2688
     25 C          67.6261   95.5626    8.6850 C.3     1  UNL1        0.0897
@<TRIPOS>BOND
     1    23    24    1
     2    24    25    1
     3    24    22    1
     4    22    21    1
     5    21     1    1
     6     1     2    1
     7     2     3    1
     8     3     4    1
     9     4     5    1
    10     5     6   ar
    11     6     7   ar
    12     7    11    1
    13    11    13    1
    14    13    14    2
    15    13    16    1
    16    16    17   ar
    17    17    18   ar
    18    18    19   ar
    19    19    20   ar
    20     7     8   ar
    21     8     9   ar
    22     9    10   ar
    23    10     1    1
    24    10     5   ar
    25    20    16   ar
    26    11    12    1
    27    14    15    1
@<TRIPOS>MOLECULE
*****
 25 27 0 0 0
SMALL
GASTEIGER

@<TRIPOS>ATOM
      1 N          63.4008   85.0248   13.2213 N.pl3   1  UNL1       -0.3063
      2 C          62.6863   84.4693   12.0251 C.3     1  UNL1        0.0912
      3 C          62.1440   85.3964   10.9780 C.3     1  UNL1        0.0261
      4 C          62.3164   86.8790   11.1270 C.3     1  UNL1        0.0295
      5 C          63.0310   87.4345   12.3231 C.ar    1  UNL1       -0.0054
      6 C          63.2033   88.9171   12.4722 C.ar    1  UNL1        0.0371
      7 C          63.9179   89.4726   13.6683 C.ar    1  UNL1        0.1354
      8 C          64.4601   88.5455   14.7154 C.ar    1  UNL1        0.0414
      9 C          64.2878   87.0629   14.5664 C.ar    1  UNL1        0.0177
     10 C          63.5732   86.5074   13.3703 C.ar    1  UNL1        0.0440
     11 N          64.0903   90.9552   13.8174 N.pl3   1  UNL1       -0.1990
     12 H          63.8412   91.5565   13.0787 H       1  UNL1        0.2985
     13 C          64.6422   91.5217   15.0919 C.2     1  UNL1        0.3224
     14 N          63.7664   91.6322   16.3047 N.2     1  UNL1       -0.0985
     15 H          62.8294   91.3329   16.2641 H       1  UNL1        0.3633
     16 C          66.0698   91.9778   15.1536 C.ar    1  UNL1        0.1114
     17 C          66.7148   92.7040   16.2967 C.ar    1  UNL1        0.0144
     18 C          68.1467   92.9627   15.9327 C.ar    1  UNL1        0.0077
     19 C          68.3867   92.3964   14.5646 C.ar    1  UNL1        0.0357
     20 S          67.1031   91.7876   14.0831 S.2     1  UNL1       -0.0792
     21 C          63.9431   84.0977   14.2684 C.3     1  UNL1        0.1081
     22 C          63.0420   83.0883   14.9156 C.3     1  UNL1        0.0938
     23 C          61.3373   81.2573   14.2144 C.3     1  UNL1        0.0897
     24 N          62.7368   81.7973   14.2154 N.3     1  UNL1       -0.2688
     25 C          63.8310   81.0463   13.5163 C.3     1  UNL1        0.0897
@<TRIPOS>BOND
     1    23    24    1
     2    24    25    1
     3    24    22    1
     4    22    21    1
     5    21     1    1
     6     1     2    1
     7     2     3    1
     8     3     4    1
     9     4     5    1
    10     5     6   ar
    11     6     7   ar
    12     7    11    1
    13    11    13    1
    14    13    14    2
    15    13    16    1
    16    16    17   ar
    17    17    18   ar
    18    18    19   ar
    19    19    20   ar
    20     7     8   ar
    21     8     9   ar
    22     9    10   ar
    23    10     1    1
    24    10     5   ar
    25    20    16   ar
    26    11    12    1
    27    14    15    1
@<TRIPOS>MOLECULE
*****
 25 27 0 0 0
SMALL
GASTEIGER

@<TRIPOS>ATOM
      1 N          65.7128   93.0889   12.6950 N.pl3   1  UNL1       -0.3063
      2 C          66.4480   93.2423   13.9934 C.3     1  UNL1        0.0912
      3 C          66.2979   92.2058   15.0673 C.3     1  UNL1        0.0261
      4 C          65.4127   91.0159   14.8427 C.3     1  UNL1        0.0295
      5 C          64.6775   90.8626   13.5443 C.ar    1  UNL1       -0.0054
      6 C          63.7922   89.6726   13.3197 C.ar    1  UNL1        0.0371
      7 C          63.0570   89.5192   12.0213 C.ar    1  UNL1        0.1354
      8 C          63.2070   90.5557   10.9475 C.ar    1  UNL1        0.0414
      9 C          64.0922   91.7456   11.1720 C.ar    1  UNL1        0.0177
     10 C          64.8275   91.8990   12.4705 C.ar    1  UNL1        0.0440
     11 N          62.1717   88.3293   11.7967 N.pl3   1  UNL1       -0.1990
     12 H          62.3097   87.5072   12.3205 H       1  UNL1        0.2985
     13 C          61.0761   88.3919   10.7741 C.2     1  UNL1        0.3224
     14 N          60.0096   89.4412   10.8808 N.2     1  UNL1       -0.0985
     15 H          60.0286   90.0888   11.6221 H       1  UNL1        0.3633
     16 C          61.0472   87.4052    9.6447 C.ar    1  UNL1        0.1114
     17 C          62.2034   86.5774    9.1673 C.ar    1  UNL1        0.0144
     18 C          61.7277   85.7336    8.0219 C.ar    1  UNL1        0.0077
     19 C          60.2775   86.0401    7.7914 C.ar    1  UNL1        0.0357
     20 S          59.8570   87.0732    8.7943 S.2     1  UNL1       -0.0792
     21 C          65.8628   94.1254   11.6212 C.3     1  UNL1        0.1081
     22 C          66.8469   93.9158   10.5087 C.3     1  UNL1        0.0938
     23 C          67.0708   96.4604   10.0344 C.3     1  UNL1        0.0897
     24 N          67.1630   95.0385    9.5655 N.3     1  UNL1       -0.2688
     25 C          67.5712   94.7394    8.1535 C.3     1  UNL1        0.0897
@<TRIPOS>BOND
     1    23    24    1
     2    24    25    1
     3    24    22    1
     4    22    21    1
     5    21     1    1
     6     1     2    1
     7     2     3    1
     8     3     4    1
     9     4     5    1
    10     5     6   ar
    11     6     7   ar
    12     7    11    1
    13    11    13    1
    14    13    14    2
    15    13    16    1
    16    16    17   ar
    17    17    18   ar
    18    18    19   ar
    19    19    20   ar
    20     7     8   ar
    21     8     9   ar
    22     9    10   ar
    23    10     1    1
    24    10     5   ar
    25    20    16   ar
    26    11    12    1
    27    14    15    1
@<TRIPOS>MOLECULE
*****
 25 27 0 0 0
SMALL
GASTEIGER

@<TRIPOS>ATOM
      1 N          62.4242   85.9747   11.5444 N.pl3   1  UNL1       -0.3063
      2 C          61.6758   85.6596   10.2833 C.3     1  UNL1        0.0912
      3 C          61.2768   86.7655    9.3518 C.3     1  UNL1        0.0261
      4 C          61.6263   88.1865    9.6814 C.3     1  UNL1        0.0295
      5 C          62.3748   88.5015   10.9425 C.ar    1  UNL1       -0.0054
      6 C          62.7243   89.9226   11.2721 C.ar    1  UNL1        0.0371
      7 C          63.4728   90.2376   12.5332 C.ar    1  UNL1        0.1354
      8 C          63.8718   89.1317   13.4648 C.ar    1  UNL1        0.0414
      9 C          63.5223   87.7107   13.1352 C.ar    1  UNL1        0.0177
     10 C          62.7737   87.3956   11.8740 C.ar    1  UNL1        0.0440
     11 N          63.8223   91.6586   12.8629 N.pl3   1  UNL1       -0.1990
     12 H          63.1495   92.2485   13.2735 H       1  UNL1        0.2985
     13 C          65.1969   92.1809   12.5668 C.2     1  UNL1        0.3224
     14 N          65.5885   92.5042   11.1554 N.2     1  UNL1       -0.0985
     15 H          64.9434   92.3736   10.4233 H       1  UNL1        0.3633
     16 C          66.1799   92.3799   13.6822 C.ar    1  UNL1        0.1114
     17 C          66.8259   91.2951   14.4921 C.ar    1  UNL1        0.0144
     18 C          67.7347   91.9433   15.4940 C.ar    1  UNL1        0.0077
     19 C          67.6504   93.4288   15.3033 C.ar    1  UNL1        0.0357
     20 S          66.6895   93.6985   14.1835 S.2     1  UNL1       -0.0792
     21 C          62.8232   84.8687   12.4760 C.3     1  UNL1        0.1081
     22 C          62.7567   83.4419   12.0182 C.3     1  UNL1        0.0938
     23 C          62.2801   82.6586   14.4491 C.3     1  UNL1        0.0897
     24 N          62.6189   82.3373   13.0236 N.3     1  UNL1       -0.2688
     25 C          62.8197   80.9114   12.6035 C.3     1  UNL1        0.0897
@<TRIPOS>BOND
     1    23    24    1
     2    24    25    1
     3    24    22    1
     4    22    21    1
     5    21     1    1
     6     1     2    1
     7     2     3    1
     8     3     4    1
     9     4     5    1
    10     5     6   ar
    11     6     7   ar
    12     7    11    1
    13    11    13    1
    14    13    14    2
    15    13    16    1
    16    16    17   ar
    17    17    18   ar
    18    18    19   ar
    19    19    20   ar
    20     7     8   ar
    21     8     9   ar
    22     9    10   ar
    23    10     1    1
    24    10     5   ar
    25    20    16   ar
    26    11    12    1
    27    14    15    1
@<TRIPOS>MOLECULE
*****
 25 27 0 0 0
SMALL
GASTEIGER

@<TRIPOS>ATOM
      1 N          60.8642   86.4327    8.8813 N.pl3   1  UNL1       -0.3063
      2 C          60.9186   86.0772    7.4251 C.3     1  UNL1        0.0912
      3 C          61.9208   85.0747    6.9347 C.3     1  UNL1        0.0261
      4 C          62.8688   84.4278    7.9005 C.3     1  UNL1        0.0295
      5 C          62.8145   84.7833    9.3567 C.ar    1  UNL1       -0.0054
      6 C          63.7625   84.1364   10.3226 C.ar    1  UNL1        0.0371
      7 C          63.7081   84.4919   11.7788 C.ar    1  UNL1        0.1354
      8 C          62.7059   85.4943   12.2692 C.ar    1  UNL1        0.0414
      9 C          61.7579   86.1413   11.3034 C.ar    1  UNL1        0.0177
     10 C          61.8122   85.7858    9.8471 C.ar    1  UNL1        0.0440
     11 N          64.6561   83.8449   12.7447 N.pl3   1  UNL1       -0.1990
     12 H          65.6225   83.8389   12.5566 H       1  UNL1        0.2985
     13 C          64.1318   83.2073   13.9970 C.2     1  UNL1        0.3224
     14 N          64.6264   83.6668   15.3364 N.2     1  UNL1       -0.0985
     15 H          65.2953   84.3869   15.3936 H       1  UNL1        0.3633
     16 C          63.1127   82.1101   13.9098 C.ar    1  UNL1        0.1114
     17 C          61.6935   82.1847   14.3899 C.ar    1  UNL1        0.0144
     18 C          61.0376   80.8663   14.1041 C.ar    1  UNL1        0.0077
     19 C          62.0514   79.9769   13.4474 C.ar    1  UNL1        0.0357
     20 S          63.3339   80.7456   13.3274 S.2     1  UNL1       -0.0792
     21 C          59.8619   87.4351    9.3717 C.3     1  UNL1        0.1081
     22 C          60.0790   88.8977    9.1196 C.3     1  UNL1        0.0938
     23 C          62.1530   89.9458   10.2816 C.3     1  UNL1        0.0897
     24 N          60.6665   89.7649   10.1933 N.3     1  UNL1       -0.2688
     25 C          59.7676   90.4510   11.1788 C.3     1  UNL1        0.0897
@<TRIPOS>BOND
     1    23    24    1
     2    24    25    1
     3    24    22    1
     4    22    21    1
     5    21     1    1
     6     1     2    1
     7     2     3    1
     8     3     4    1
     9     4     5    1
    10     5     6   ar
    11     6     7   ar
    12     7    11    1
    13    11    13    1
    14    13    14    2
    15    13    16    1
    16    16    17   ar
    17    17    18   ar
    18    18    19   ar
    19    19    20   ar
    20     7     8   ar
    21     8     9   ar
    22     9    10   ar
    23    10     1    1
    24    10     5   ar
    25    20    16   ar
    26    11    12    1
    27    14    15    1
@<TRIPOS>MOLECULE
*****
 25 27 0 0 0
SMALL
GASTEIGER

@<TRIPOS>ATOM
      1 N          65.6553   92.3883   13.4330 N.pl3   1  UNL1       -0.3063
      2 C          66.3626   93.5608   12.8207 C.3     1  UNL1        0.0912
      3 C          66.0879   93.9420   11.3962 C.3     1  UNL1        0.0261
      4 C          65.1059   93.1508   10.5840 C.3     1  UNL1        0.0295
      5 C          64.3986   91.9784   11.1963 C.ar    1  UNL1       -0.0054
      6 C          63.4166   91.1871   10.3842 C.ar    1  UNL1        0.0371
      7 C          62.7093   90.0146   10.9965 C.ar    1  UNL1        0.1354
      8 C          62.9840   89.6333   12.4210 C.ar    1  UNL1        0.0414
      9 C          63.9660   90.4246   13.2332 C.ar    1  UNL1        0.0177
     10 C          64.6733   91.5971   12.6208 C.ar    1  UNL1        0.0440
     11 N          61.7273   89.2233   10.1843 N.pl3   1  UNL1       -0.1990
     12 H          61.4346   89.5558    9.3051 H       1  UNL1        0.2985
     13 C          61.1912   87.9255   10.7117 C.2     1  UNL1        0.3224
     14 N          59.9375   87.9111   11.5352 N.2     1  UNL1       -0.0985
     15 H          59.4665   88.7535   11.7294 H       1  UNL1        0.3633
     16 C          61.9089   86.6420   10.4157 C.ar    1  UNL1        0.1114
     17 C          62.4198   86.2066    9.0743 C.ar    1  UNL1        0.0144
     18 C          63.0683   84.8641    9.2387 C.ar    1  UNL1        0.0077
     19 C          62.9583   84.4698   10.6818 C.ar    1  UNL1        0.0357
     20 S          62.2417   85.5686   11.4092 S.2     1  UNL1       -0.0792
     21 C          65.9300   92.0071   14.8575 C.3     1  UNL1        0.1081
     22 C          66.7286   92.9218   15.7381 C.3     1  UNL1        0.0938
     23 C          68.9408   94.2343   16.1036 C.3     1  UNL1        0.0897
     24 N          68.2088   93.0550   15.5348 N.3     1  UNL1       -0.2688
     25 C          68.9569   92.0090   14.7627 C.3     1  UNL1        0.0897
@<TRIPOS>BOND
     1    23    24    1
     2    24    25    1
     3    24    22    1
     4    22    21    1
     5    21     1    1
     6     1     2    1
     7     2     3    1
     8     3     4    1
     9     4     5    1
    10     5     6   ar
    11     6     7   ar
    12     7    11    1
    13    11    13    1
    14    13    14    2
    15    13    16    1
    16    16    17   ar
    17    17    18   ar
    18    18    19   ar
    19    19    20   ar
    20     7     8   ar
    21     8     9   ar
    22     9    10   ar
    23    10     1    1
    24    10     5   ar
    25    20    16   ar
    26    11    12    1
    27    14    15    1
@<TRIPOS>MOLECULE
*****
 25 27 0 0 0
SMALL
GASTEIGER

@<TRIPOS>ATOM
      1 N          63.2923   89.9688   12.3297 N.pl3   1  UNL1       -0.3063
      2 C          62.5748   90.1038   11.0194 C.3     1  UNL1        0.0912
      3 C          62.0975   88.8795   10.2960 C.3     1  UNL1        0.0261
      4 C          62.3377   87.5202   10.8830 C.3     1  UNL1        0.0295
      5 C          63.0552   87.3852   12.1932 C.ar    1  UNL1       -0.0054
      6 C          63.2954   86.0258   12.7802 C.ar    1  UNL1        0.0371
      7 C          64.0129   85.8908   14.0905 C.ar    1  UNL1        0.1354
      8 C          64.4902   87.1151   14.8139 C.ar    1  UNL1        0.0414
      9 C          64.2500   88.4744   14.2270 C.ar    1  UNL1        0.0177
     10 C          63.5325   88.6095   12.9166 C.ar    1  UNL1        0.0440
     11 N          64.2531   84.5314   14.6775 N.pl3   1  UNL1       -0.1990
     12 H          65.1722   84.2295   14.8602 H       1  UNL1        0.2985
     13 C          63.0930   83.6321   14.9862 C.2     1  UNL1        0.3224
     14 N          62.1927   83.9405   16.1456 N.2     1  UNL1       -0.0985
     15 H          62.3632   84.7332   16.7040 H       1  UNL1        0.3633
     16 C          62.8332   82.4244   14.1355 C.ar    1  UNL1        0.1114
     17 C          61.7841   81.3811   14.3823 C.ar    1  UNL1        0.0144
     18 C          61.8794   80.3598   13.2879 C.ar    1  UNL1        0.0077
     19 C          62.9875   80.7719   12.3646 C.ar    1  UNL1        0.0357
     20 S          63.5770   82.0478   12.8884 S.2     1  UNL1       -0.0792
     21 C          63.7696   91.1931   13.0531 C.3     1  UNL1        0.1081
     22 C          64.9890   91.9215   12.5709 C.3     1  UNL1        0.0938
     23 C          66.4927   93.8170   13.5175 C.3     1  UNL1        0.0897
     24 N          66.0180   92.3945   13.5545 N.3     1  UNL1       -0.2688
     25 C          66.5722   91.4452   14.5750 C.3     1  UNL1        0.0897
@<TRIPOS>BOND
     1    23    24    1
     2    24    25    1
     3    24    22    1
     4    22    21    1
     5    21     1    1
     6     1     2    1
     7     2     3    1
     8     3     4    1
     9     4     5    1
    10     5     6   ar
    11     6     7   ar
    12     7    11    1
    13    11    13    1
    14    13    14    2
    15    13    16    1
    16    16    17   ar
    17    17    18   ar
    18    18    19   ar
    19    19    20   ar
    20     7     8   ar
    21     8     9   ar
    22     9    10   ar
    23    10     1    1
    24    10     5   ar
    25    20    16   ar
    26    11    12    1
    27    14    15    1
@<TRIPOS>MOLECULE
*****
 25 27 0 0 0
SMALL
GASTEIGER

@<TRIPOS>ATOM
      1 N          62.7937   89.4964   11.3597 N.pl3   1  UNL1       -0.3063
      2 C          63.1748   90.8604   11.8539 C.3     1  UNL1        0.0912
      3 C          63.9007   91.0099   13.1580 C.3     1  UNL1        0.0261
      4 C          64.2455   89.7954   13.9680 C.3     1  UNL1        0.0295
      5 C          63.8645   88.4314   13.4738 C.ar    1  UNL1       -0.0054
      6 C          64.2093   87.2168   14.2837 C.ar    1  UNL1        0.0371
      7 C          63.8282   85.8528   13.7895 C.ar    1  UNL1        0.1354
      8 C          63.1023   85.7033   12.4854 C.ar    1  UNL1        0.0414
      9 C          62.7575   86.9178   11.6755 C.ar    1  UNL1        0.0177
     10 C          63.1385   88.2819   12.1697 C.ar    1  UNL1        0.0440
     11 N          64.1731   84.6382   14.5995 N.pl3   1  UNL1       -0.1990
     12 H          65.1078   84.4673   14.8569 H       1  UNL1        0.2985
     13 C          63.0937   83.6840   15.0171 C.2     1  UNL1        0.3224
     14 N          62.2706   83.9705   16.2379 N.2     1  UNL1       -0.0985
     15 H          62.4388   84.7847   16.7651 H       1  UNL1        0.3633
     16 C          62.8375   82.4434   14.2139 C.ar    1  UNL1        0.1114
     17 C          61.6913   81.4938   14.3998 C.ar    1  UNL1        0.0144
     18 C          61.8278   80.3980   13.3846 C.ar    1  UNL1        0.0077
     19 C          63.0584   80.6705   12.5712 C.ar    1  UNL1        0.0357
     20 S          63.6824   81.9346   13.0838 S.2     1  UNL1       -0.0792
     21 C          62.0678   89.3469   10.0556 C.3     1  UNL1        0.1081
     22 C          60.6413   88.8836   10.0401 C.3     1  UNL1        0.0938
     23 C          59.5024   88.7233    7.7104 C.3     1  UNL1        0.0897
     24 N          60.1338   88.0563    8.8965 N.3     1  UNL1       -0.2688
     25 C          60.2575   86.5621    8.9388 C.3     1  UNL1        0.0897
@<TRIPOS>BOND
     1    23    24    1
     2    24    25    1
     3    24    22    1
     4    22    21    1
     5    21     1    1
     6     1     2    1
     7     2     3    1
     8     3     4    1
     9     4     5    1
    10     5     6   ar
    11     6     7   ar
    12     7    11    1
    13    11    13    1
    14    13    14    2
    15    13    16    1
    16    16    17   ar
    17    17    18   ar
    18    18    19   ar
    19    19    20   ar
    20     7     8   ar
    21     8     9   ar
    22     9    10   ar
    23    10     1    1
    24    10     5   ar
    25    20    16   ar
    26    11    12    1
    27    14    15    1
@<TRIPOS>MOLECULE
*****
 25 27 0 0 0
SMALL
GASTEIGER

@<TRIPOS>ATOM
      1 N          63.1354   85.4103   12.4686 N.pl3   1  UNL1       -0.3063
      2 C          63.7275   84.3535   13.3532 C.3     1  UNL1        0.0912
      3 C          64.4991   84.7465   14.5780 C.3     1  UNL1        0.0261
      4 C          64.6786   86.1963   14.9182 C.3     1  UNL1        0.0295
      5 C          64.0865   87.2531   14.0337 C.ar    1  UNL1       -0.0054
      6 C          64.2659   88.7030   14.3739 C.ar    1  UNL1        0.0371
      7 C          63.6738   89.7598   13.4893 C.ar    1  UNL1        0.1354
      8 C          62.9022   89.3668   12.2645 C.ar    1  UNL1        0.0414
      9 C          62.7227   87.9170   11.9243 C.ar    1  UNL1        0.0177
     10 C          63.3149   86.8601   12.8089 C.ar    1  UNL1        0.0440
     11 N          63.8532   91.2097   13.8296 N.pl3   1  UNL1       -0.1990
     12 H          63.5206   91.9041   13.2161 H       1  UNL1        0.2985
     13 C          64.5395   91.6015   15.1045 C.2     1  UNL1        0.3224
     14 N          63.7686   91.6379   16.3907 N.2     1  UNL1       -0.0985
     15 H          62.8121   91.4047   16.3981 H       1  UNL1        0.3633
     16 C          65.9967   91.9569   15.0932 C.ar    1  UNL1        0.1114
     17 C          66.9754   91.6309   14.0041 C.ar    1  UNL1        0.0144
     18 C          68.3147   92.1732   14.4068 C.ar    1  UNL1        0.0077
     19 C          68.1637   92.8344   15.7448 C.ar    1  UNL1        0.0357
     20 S          66.7312   92.7007   16.1690 S.2     1  UNL1       -0.0792
     21 C          62.3638   85.0173   11.2438 C.3     1  UNL1        0.1081
     22 C          63.0452   84.9796    9.9081 C.3     1  UNL1        0.0938
     23 C          62.6720   84.9366    7.3373 C.3     1  UNL1        0.0897
     24 N          62.3360   85.4919    8.6896 N.3     1  UNL1       -0.2688
     25 C          61.2908   86.5594    8.8235 C.3     1  UNL1        0.0897
@<TRIPOS>BOND
     1    23    24    1
     2    24    25    1
     3    24    22    1
     4    22    21    1
     5    21     1    1
     6     1     2    1
     7     2     3    1
     8     3     4    1
     9     4     5    1
    10     5     6   ar
    11     6     7   ar
    12     7    11    1
    13    11    13    1
    14    13    14    2
    15    13    16    1
    16    16    17   ar
    17    17    18   ar
    18    18    19   ar
    19    19    20   ar
    20     7     8   ar
    21     8     9   ar
    22     9    10   ar
    23    10     1    1
    24    10     5   ar
    25    20    16   ar
    26    11    12    1
    27    14    15    1
