@<TRIPOS>MOLECULE
*****
 29 31 0 0 0
SMALL
GASTEIGER

@<TRIPOS>ATOM
      1 C          63.9767   90.0606   13.3845 C.3     1  UNL1        0.1074
      2 C          63.2196   90.4957   12.1649 C.3     1  UNL1        0.0694
      3 C          62.6737   89.2690   11.4962 C.3     1  UNL1        0.2385
      4 F          61.8522   89.2405   10.2414 F       1  UNL1       -0.2273
      5 C          63.0935   88.0757   12.3024 C.2     1  UNL1        0.2588
      6 O          62.7656   86.6446   11.9955 O.2     1  UNL1       -0.2719
      7 N          63.8989   88.5650   13.4695 N.am    1  UNL1       -0.2708
      8 C          65.9211   91.6988   13.9191 C.ar    1  UNL1        0.1392
      9 C          66.6315   92.6009   14.8843 C.ar    1  UNL1        0.0368
     10 C          66.1078   92.7669   16.2801 C.ar    1  UNL1        0.0062
     11 C          64.8738   92.0309   16.7107 C.ar    1  UNL1        0.0368
     12 C          64.1635   91.1288   15.7455 C.ar    1  UNL1        0.1392
     13 C          64.6871   90.9628   14.3497 C.ar    1  UNL1        0.0637
     14 C          66.3792   92.6777   11.5565 C.3     1  UNL1        0.2525
     15 O          66.4448   91.5328   12.5233 O.3     1  UNL1       -0.4716
     16 O          62.9294   90.3927   16.1761 O.3     1  UNL1       -0.4716
     17 C          63.0492   89.1487   17.0055 C.3     1  UNL1        0.2525
     18 C          64.5177   87.7090   14.5345 C.3     1  UNL1        0.1205
     19 C          64.1576   86.2562   14.6324 C.ar    1  UNL1       -0.0021
     20 C          62.9696   85.8308   15.4432 C.ar    1  UNL1        0.0005
     21 C          62.6096   84.3780   15.5410 C.ar    1  UNL1        0.0369
     22 C          63.4377   83.3505   14.8280 C.ar    1  UNL1        0.1468
     23 C          64.6258   83.7758   14.0171 C.ar    1  UNL1        0.0369
     24 C          64.9858   85.2287   13.9193 C.ar    1  UNL1        0.0005
     25 O          63.0777   81.8976   14.9258 O.3     1  UNL1       -0.4045
     26 C          62.7175   81.1291   13.6890 C.3     1  UNL1        0.5753
     27 F          62.3574   80.3606   12.4522 F       1  UNL1       -0.1328
     28 F          61.2815   81.5274   13.8597 F       1  UNL1       -0.1328
     29 F          64.1536   80.7308   13.5184 F       1  UNL1       -0.1328
@<TRIPOS>BOND
     1    14    15    1
     2    15     8    1
     3     8     9   ar
     4     9    10   ar
     5    10    11   ar
     6    11    12   ar
     7    12    16    1
     8    16    17    1
     9    12    13   ar
    10     1    13    1
    11     1     2    1
    12     2     3    1
    13     3     4    1
    14     3     5    1
    15     5     6    2
    16     5     7   am
    17     7    18    1
    18    18    19    1
    19    19    20   ar
    20    20    21   ar
    21    21    22   ar
    22    22    25    1
    23    25    26    1
    24    26    27    1
    25    26    28    1
    26    26    29    1
    27    22    23   ar
    28    23    24   ar
    29    13     8   ar
    30     7     1    1
    31    24    19   ar
@<TRIPOS>MOLECULE
*****
 29 31 0 0 0
SMALL
GASTEIGER

@<TRIPOS>ATOM
      1 C          64.0066   90.0809   13.3932 C.3     1  UNL1        0.1074
      2 C          63.2542   90.5135   12.1698 C.3     1  UNL1        0.0694
      3 C          62.7000   89.2866   11.5084 C.3     1  UNL1        0.2385
      4 F          61.8799   89.2560   10.2528 F       1  UNL1       -0.2273
      5 C          63.1100   88.0956   12.3230 C.2     1  UNL1        0.2588
      6 O          62.7718   86.6649   12.0250 O.2     1  UNL1       -0.2719
      7 N          63.9175   88.5865   13.4878 N.am    1  UNL1       -0.2708
      8 C          64.1949   91.1680   15.7454 C.ar    1  UNL1        0.1392
      9 C          64.9108   92.0711   16.7055 C.ar    1  UNL1        0.0368
     10 C          66.1543   92.7902   16.2736 C.ar    1  UNL1        0.0062
     11 C          66.6819   92.6063   14.8816 C.ar    1  UNL1        0.0368
     12 C          65.9660   91.7032   13.9215 C.ar    1  UNL1        0.1392
     13 C          64.7225   90.9840   14.3534 C.ar    1  UNL1        0.0637
     14 C          63.0552   89.1997   17.0012 C.3     1  UNL1        0.2525
     15 O          62.9514   90.4489   16.1773 O.3     1  UNL1       -0.4716
     16 O          66.4936   91.5191   12.5294 O.3     1  UNL1       -0.4716
     17 C          66.4471   92.6571   11.5532 C.3     1  UNL1        0.2525
     18 C          64.5286   87.7329   14.5592 C.3     1  UNL1        0.1205
     19 C          64.1680   86.2803   14.6577 C.ar    1  UNL1       -0.0021
     20 C          64.9725   85.2557   13.9140 C.ar    1  UNL1        0.0005
     21 C          64.6118   83.8030   14.0125 C.ar    1  UNL1        0.0369
     22 C          63.4467   83.3750   14.8546 C.ar    1  UNL1        0.1468
     23 C          62.6422   84.3995   15.5983 C.ar    1  UNL1        0.0369
     24 C          63.0028   85.8522   15.4998 C.ar    1  UNL1        0.0005
     25 O          63.0861   81.9222   14.9530 O.3     1  UNL1       -0.4045
     26 C          62.7144   81.1563   13.7181 C.3     1  UNL1        0.5753
     27 F          62.3426   80.3904   12.4831 F       1  UNL1       -0.1328
     28 F          64.1430   80.7303   13.5522 F       1  UNL1       -0.1328
     29 F          61.2857   81.5824   13.8839 F       1  UNL1       -0.1328
@<TRIPOS>BOND
     1    14    15    1
     2    15     8    1
     3     8     9   ar
     4     9    10   ar
     5    10    11   ar
     6    11    12   ar
     7    12    16    1
     8    16    17    1
     9    12    13   ar
    10     1    13    1
    11     1     2    1
    12     2     3    1
    13     3     4    1
    14     3     5    1
    15     5     6    2
    16     5     7   am
    17     7    18    1
    18    18    19    1
    19    19    20   ar
    20    20    21   ar
    21    21    22   ar
    22    22    25    1
    23    25    26    1
    24    26    27    1
    25    26    28    1
    26    26    29    1
    27    22    23   ar
    28    23    24   ar
    29    13     8   ar
    30     7     1    1
    31    24    19   ar
@<TRIPOS>MOLECULE
*****
 29 31 0 0 0
SMALL
GASTEIGER

@<TRIPOS>ATOM
      1 C          60.7449   87.8037   10.7714 C.3     1  UNL1        0.1074
      2 C          59.4647   87.6237   11.5321 C.3     1  UNL1        0.0694
      3 C          58.9810   88.9798   11.9530 C.3     1  UNL1        0.2385
      4 F          57.7349   89.2672   12.7369 F       1  UNL1       -0.2273
      5 C          59.9623   89.9979   11.4524 C.2     1  UNL1        0.2588
      6 O          59.8697   91.4822   11.6477 O.2     1  UNL1       -0.2719
      7 N          61.0524   89.2710   10.7221 N.am    1  UNL1       -0.2708
      8 C          62.4772   85.8853   11.0340 C.ar    1  UNL1        0.1392
      9 C          63.3046   84.7903   10.4288 C.ar    1  UNL1        0.0368
     10 C          63.2271   84.5187    8.9556 C.ar    1  UNL1        0.0062
     11 C          62.3222   85.3420    8.0877 C.ar    1  UNL1        0.0368
     12 C          61.4948   86.4370    8.6930 C.ar    1  UNL1        0.1392
     13 C          61.5723   86.7086   10.1661 C.ar    1  UNL1        0.0637
     14 C          63.4769   85.3492   13.3713 C.3     1  UNL1        0.2525
     15 O          62.5547   86.1570   12.5072 O.3     1  UNL1       -0.4716
     16 O          60.5899   87.2604    7.8251 O.3     1  UNL1       -0.4716
     17 C          59.1461   86.8821    7.6753 C.3     1  UNL1        0.2525
     18 C          62.2413   89.9009   10.0590 C.3     1  UNL1        0.1205
     19 C          63.2405   90.6631   10.8778 C.ar    1  UNL1       -0.0021
     20 C          63.4414   90.3216   12.3245 C.ar    1  UNL1        0.0005
     21 C          64.4406   91.0839   13.1433 C.ar    1  UNL1        0.0369
     22 C          65.2390   92.1877   12.5154 C.ar    1  UNL1        0.1468
     23 C          65.0382   92.5291   11.0687 C.ar    1  UNL1        0.0369
     24 C          64.0389   91.7669   10.2499 C.ar    1  UNL1        0.0005
     25 O          66.2383   92.9499   13.3343 O.3     1  UNL1       -0.4045
     26 C          67.0776   92.2339   14.3506 C.3     1  UNL1        0.5753
     27 F          67.9168   91.5178   15.3669 F       1  UNL1       -0.1328
     28 F          67.8369   91.5582   13.2475 F       1  UNL1       -0.1328
     29 F          66.3182   92.9096   15.4537 F       1  UNL1       -0.1328
@<TRIPOS>BOND
     1    14    15    1
     2    15     8    1
     3     8     9   ar
     4     9    10   ar
     5    10    11   ar
     6    11    12   ar
     7    12    16    1
     8    16    17    1
     9    12    13   ar
    10     1    13    1
    11     1     2    1
    12     2     3    1
    13     3     4    1
    14     3     5    1
    15     5     6    2
    16     5     7   am
    17     7    18    1
    18    18    19    1
    19    19    20   ar
    20    20    21   ar
    21    21    22   ar
    22    22    25    1
    23    25    26    1
    24    26    27    1
    25    26    28    1
    26    26    29    1
    27    22    23   ar
    28    23    24   ar
    29    13     8   ar
    30     7     1    1
    31    24    19   ar
@<TRIPOS>MOLECULE
*****
 29 31 0 0 0
SMALL
GASTEIGER

@<TRIPOS>ATOM
      1 C          60.7494   87.8034   10.7697 C.3     1  UNL1        0.1074
      2 C          59.4666   87.6243   11.5263 C.3     1  UNL1        0.0694
      3 C          58.9841   88.9804   11.9483 C.3     1  UNL1        0.2385
      4 F          57.7361   89.2686   12.7290 F       1  UNL1       -0.2273
      5 C          59.9687   89.9977   11.4526 C.2     1  UNL1        0.2588
      6 O          59.8782   91.4818   11.6506 O.2     1  UNL1       -0.2719
      7 N          61.0597   89.2703   10.7242 N.am    1  UNL1       -0.2708
      8 C          61.5019   86.4382    8.6913 C.ar    1  UNL1        0.1392
      9 C          62.3292   85.3428    8.0865 C.ar    1  UNL1        0.0368
     10 C          63.2312   84.5173    8.9554 C.ar    1  UNL1        0.0062
     11 C          63.3059   84.7871   10.4290 C.ar    1  UNL1        0.0368
     12 C          62.4787   85.8824   11.0337 C.ar    1  UNL1        0.1392
     13 C          61.5767   86.7080   10.1649 C.ar    1  UNL1        0.0637
     14 C          59.1558   86.8881    7.6700 C.3     1  UNL1        0.2525
     15 O          60.5999   87.2637    7.8225 O.3     1  UNL1       -0.4716
     16 O          62.5534   86.1523   12.5074 O.3     1  UNL1       -0.4716
     17 C          63.4809   85.3496   13.3708 C.3     1  UNL1        0.2525
     18 C          62.2518   89.8992   10.0659 C.3     1  UNL1        0.1205
     19 C          63.2471   90.6626   10.8885 C.ar    1  UNL1       -0.0021
     20 C          63.4468   90.3177   12.3346 C.ar    1  UNL1        0.0005
     21 C          64.4422   91.0811   13.1571 C.ar    1  UNL1        0.0369
     22 C          65.2378   92.1893   12.5335 C.ar    1  UNL1        0.1468
     23 C          65.0380   92.5342   11.0874 C.ar    1  UNL1        0.0369
     24 C          64.0427   91.7708   10.2649 C.ar    1  UNL1        0.0005
     25 O          66.2332   92.9526   13.3561 O.3     1  UNL1       -0.4045
     26 C          67.0850   92.2340   14.3600 C.3     1  UNL1        0.5753
     27 F          67.9369   91.5153   15.3639 F       1  UNL1       -0.1328
     28 F          66.3470   92.9154   15.4740 F       1  UNL1       -0.1328
     29 F          67.8230   91.5526   13.2459 F       1  UNL1       -0.1328
@<TRIPOS>BOND
     1    14    15    1
     2    15     8    1
     3     8     9   ar
     4     9    10   ar
     5    10    11   ar
     6    11    12   ar
     7    12    16    1
     8    16    17    1
     9    12    13   ar
    10     1    13    1
    11     1     2    1
    12     2     3    1
    13     3     4    1
    14     3     5    1
    15     5     6    2
    16     5     7   am
    17     7    18    1
    18    18    19    1
    19    19    20   ar
    20    20    21   ar
    21    21    22   ar
    22    22    25    1
    23    25    26    1
    24    26    27    1
    25    26    28    1
    26    26    29    1
    27    22    23   ar
    28    23    24   ar
    29    13     8   ar
    30     7     1    1
    31    24    19   ar
@<TRIPOS>MOLECULE
*****
 29 31 0 0 0
SMALL
GASTEIGER

@<TRIPOS>ATOM
      1 C          63.7901   89.2395   14.8164 C.3     1  UNL1        0.1074
      2 C          63.3843   89.6244   16.2082 C.3     1  UNL1        0.0694
      3 C          63.2270   88.3663   17.0098 C.3     1  UNL1        0.2385
      4 F          62.8307   88.2849   18.4542 F       1  UNL1       -0.2273
      5 C          63.5356   87.2038   16.1133 C.2     1  UNL1        0.2588
      6 O          63.5021   85.7560   16.5039 O.2     1  UNL1       -0.2719
      7 N          63.8836   87.7435   14.7577 N.am    1  UNL1       -0.2708
      8 C          63.1881   90.1511   12.4591 C.ar    1  UNL1        0.1392
      9 C          63.4538   91.0962   11.3251 C.ar    1  UNL1        0.0368
     10 C          64.5871   92.0748   11.4141 C.ar    1  UNL1        0.0062
     11 C          65.4547   92.1083   12.6372 C.ar    1  UNL1        0.0368
     12 C          65.1891   91.1632   13.7712 C.ar    1  UNL1        0.1392
     13 C          64.0557   90.1846   13.6822 C.ar    1  UNL1        0.0637
     14 C          61.9094   88.3016   11.1576 C.3     1  UNL1        0.2525
     15 O          62.0548   89.1725   12.3701 O.3     1  UNL1       -0.4716
     16 O          66.0567   91.1967   14.9944 O.3     1  UNL1       -0.4716
     17 C          66.3237   92.4990   15.6892 C.3     1  UNL1        0.2525
     18 C          64.2592   86.9301   13.5547 C.3     1  UNL1        0.1205
     19 C          64.0244   85.4486   13.5480 C.ar    1  UNL1       -0.0021
     20 C          64.9338   84.5415   14.3227 C.ar    1  UNL1        0.0005
     21 C          64.6989   83.0601   14.3159 C.ar    1  UNL1        0.0369
     22 C          63.5547   82.4857   13.5343 C.ar    1  UNL1        0.1468
     23 C          62.6453   83.3928   12.7596 C.ar    1  UNL1        0.0369
     24 C          62.8802   84.8742   12.7664 C.ar    1  UNL1        0.0005
     25 O          63.3199   81.0041   13.5276 O.3     1  UNL1       -0.4045
     26 C          61.9326   80.4637   13.7095 C.3     1  UNL1        0.5753
     27 F          60.5452   79.9233   13.8915 F       1  UNL1       -0.1328
     28 F          62.1804   79.4612   12.6216 F       1  UNL1       -0.1328
     29 F          61.6848   81.4663   14.7975 F       1  UNL1       -0.1328
@<TRIPOS>BOND
     1    14    15    1
     2    15     8    1
     3     8     9   ar
     4     9    10   ar
     5    10    11   ar
     6    11    12   ar
     7    12    16    1
     8    16    17    1
     9    12    13   ar
    10     1    13    1
    11     1     2    1
    12     2     3    1
    13     3     4    1
    14     3     5    1
    15     5     6    2
    16     5     7   am
    17     7    18    1
    18    18    19    1
    19    19    20   ar
    20    20    21   ar
    21    21    22   ar
    22    22    25    1
    23    25    26    1
    24    26    27    1
    25    26    28    1
    26    26    29    1
    27    22    23   ar
    28    23    24   ar
    29    13     8   ar
    30     7     1    1
    31    24    19   ar
@<TRIPOS>MOLECULE
*****
 29 31 0 0 0
SMALL
GASTEIGER

@<TRIPOS>ATOM
      1 C          63.7934   89.2296   14.8287 C.3     1  UNL1        0.1074
      2 C          63.3925   89.6157   16.2216 C.3     1  UNL1        0.0694
      3 C          63.2303   88.3579   17.0226 C.3     1  UNL1        0.2385
      4 F          62.8366   88.2777   18.4678 F       1  UNL1       -0.2273
      5 C          63.5310   87.1945   16.1248 C.2     1  UNL1        0.2588
      6 O          63.4907   85.7465   16.5145 O.2     1  UNL1       -0.2719
      7 N          63.8790   87.7332   14.7689 N.am    1  UNL1       -0.2708
      8 C          65.2280   91.1148   13.7619 C.ar    1  UNL1        0.1392
      9 C          65.4962   92.0593   12.6279 C.ar    1  UNL1        0.0368
     10 C          64.5981   92.0629   11.4265 C.ar    1  UNL1        0.0062
     11 C          63.4317   91.1222   11.3591 C.ar    1  UNL1        0.0368
     12 C          63.1635   90.1778   12.4932 C.ar    1  UNL1        0.1392
     13 C          64.0617   90.1741   13.6946 C.ar    1  UNL1        0.0637
     14 C          67.4724   91.7692   14.8953 C.3     1  UNL1        0.2525
     15 O          66.1262   91.1112   14.9633 O.3     1  UNL1       -0.4716
     16 O          61.9971   89.2369   12.4259 O.3     1  UNL1       -0.4716
     17 C          61.7970   88.3759   11.2140 C.3     1  UNL1        0.2525
     18 C          64.2478   86.9186   13.5646 C.3     1  UNL1        0.1205
     19 C          64.0245   85.4354   13.5652 C.ar    1  UNL1       -0.0021
     20 C          64.9413   84.5391   14.3437 C.ar    1  UNL1        0.0005
     21 C          64.7179   83.0559   14.3443 C.ar    1  UNL1        0.0369
     22 C          63.5775   82.4689   13.5664 C.ar    1  UNL1        0.1468
     23 C          62.6607   83.3651   12.7879 C.ar    1  UNL1        0.0369
     24 C          62.8841   84.8484   12.7873 C.ar    1  UNL1        0.0005
     25 O          63.3542   80.9855   13.5671 O.3     1  UNL1       -0.4045
     26 C          61.9646   80.4363   13.6995 C.3     1  UNL1        0.5753
     27 F          60.5751   79.8871   13.8318 F       1  UNL1       -0.1328
     28 F          62.2519   79.4468   12.6094 F       1  UNL1       -0.1328
     29 F          61.6774   81.4259   14.7896 F       1  UNL1       -0.1328
@<TRIPOS>BOND
     1    14    15    1
     2    15     8    1
     3     8     9   ar
     4     9    10   ar
     5    10    11   ar
     6    11    12   ar
     7    12    16    1
     8    16    17    1
     9    12    13   ar
    10     1    13    1
    11     1     2    1
    12     2     3    1
    13     3     4    1
    14     3     5    1
    15     5     6    2
    16     5     7   am
    17     7    18    1
    18    18    19    1
    19    19    20   ar
    20    20    21   ar
    21    21    22   ar
    22    22    25    1
    23    25    26    1
    24    26    27    1
    25    26    28    1
    26    26    29    1
    27    22    23   ar
    28    23    24   ar
    29    13     8   ar
    30     7     1    1
    31    24    19   ar
@<TRIPOS>MOLECULE
*****
 29 31 0 0 0
SMALL
GASTEIGER

@<TRIPOS>ATOM
      1 C          62.7841   89.7691   12.5098 C.3     1  UNL1        0.1074
      2 C          61.6161   90.2990   11.7322 C.3     1  UNL1        0.0694
      3 C          60.9751   89.1474   11.0161 C.3     1  UNL1        0.2385
      4 F          59.7732   89.2240   10.1219 F       1  UNL1       -0.2273
      5 C          61.7471   87.9056   11.3511 C.2     1  UNL1        0.2588
      6 O          61.4526   86.5225   10.8507 O.2     1  UNL1       -0.2719
      7 N          62.8651   88.2899   12.2743 N.am    1  UNL1       -0.2708
      8 C          64.6835   91.5267   12.7412 C.ar    1  UNL1        0.1392
      9 C          65.6082   92.3341   13.6031 C.ar    1  UNL1        0.0368
     10 C          65.5585   92.1913   15.0955 C.ar    1  UNL1        0.0062
     11 C          64.5840   91.2412   15.7259 C.ar    1  UNL1        0.0368
     12 C          63.6592   90.4338   14.8641 C.ar    1  UNL1        0.1392
     13 C          63.7090   90.5765   13.3717 C.ar    1  UNL1        0.0637
     14 C          65.4790   92.8139   10.6293 C.3     1  UNL1        0.2525
     15 O          64.7332   91.6694   11.2488 O.3     1  UNL1       -0.4716
     16 O          62.6847   89.4836   15.4945 O.3     1  UNL1       -0.4716
     17 C          63.0520   88.7598   16.7560 C.3     1  UNL1        0.2525
     18 C          63.8850   87.3585   12.8592 C.3     1  UNL1        0.1205
     19 C          63.4706   86.0003   13.3426 C.ar    1  UNL1       -0.0021
     20 C          63.1027   84.9328   12.3552 C.ar    1  UNL1        0.0005
     21 C          62.6883   83.5747   12.8387 C.ar    1  UNL1        0.0369
     22 C          62.6418   83.2841   14.3096 C.ar    1  UNL1        0.1468
     23 C          63.0098   84.3517   15.2969 C.ar    1  UNL1        0.0369
     24 C          63.4242   85.7098   14.8134 C.ar    1  UNL1        0.0005
     25 O          62.2274   81.9259   14.7930 O.3     1  UNL1       -0.4045
     26 C          62.2422   80.7580   13.8518 C.3     1  UNL1        0.5753
     27 F          62.2571   79.5901   12.9107 F       1  UNL1       -0.1328
     28 F          63.7408   80.7295   13.9108 F       1  UNL1       -0.1328
     29 F          60.7436   80.7866   13.7929 F       1  UNL1       -0.1328
@<TRIPOS>BOND
     1    14    15    1
     2    15     8    1
     3     8     9   ar
     4     9    10   ar
     5    10    11   ar
     6    11    12   ar
     7    12    16    1
     8    16    17    1
     9    12    13   ar
    10     1    13    1
    11     1     2    1
    12     2     3    1
    13     3     4    1
    14     3     5    1
    15     5     6    2
    16     5     7   am
    17     7    18    1
    18    18    19    1
    19    19    20   ar
    20    20    21   ar
    21    21    22   ar
    22    22    25    1
    23    25    26    1
    24    26    27    1
    25    26    28    1
    26    26    29    1
    27    22    23   ar
    28    23    24   ar
    29    13     8   ar
    30     7     1    1
    31    24    19   ar
@<TRIPOS>MOLECULE
*****
 29 31 0 0 0
SMALL
GASTEIGER

@<TRIPOS>ATOM
      1 C          61.5365   86.3525   10.1193 C.3     1  UNL1        0.1074
      2 C          60.4447   86.3922    9.0915 C.3     1  UNL1        0.0694
      3 C          59.7359   87.7080    9.2186 C.3     1  UNL1        0.2385
      4 F          58.5769   88.1693    8.3856 F       1  UNL1       -0.2273
      5 C          60.3897   88.4816   10.3251 C.2     1  UNL1        0.2588
      6 O          59.9992   89.8523   10.7928 O.2     1  UNL1       -0.2719
      7 N          61.5024   87.6439   10.8817 N.am    1  UNL1       -0.2708
      8 C          63.2987   84.6789    9.2008 C.ar    1  UNL1        0.1392
      9 C          64.2563   83.5467    9.4267 C.ar    1  UNL1        0.0368
     10 C          64.4094   82.9559   10.7969 C.ar    1  UNL1        0.0062
     11 C          63.6049   83.4973   11.9413 C.ar    1  UNL1        0.0368
     12 C          62.6473   84.6295   11.7154 C.ar    1  UNL1        0.1392
     13 C          62.4942   85.2203   10.3452 C.ar    1  UNL1        0.0637
     14 C          62.3977   84.5185    6.7693 C.3     1  UNL1        0.2525
     15 O          63.1456   85.2697    7.8306 O.3     1  UNL1       -0.4716
     16 O          61.8427   85.1710   12.8598 O.3     1  UNL1       -0.4716
     17 C          62.1822   84.7785   14.2672 C.3     1  UNL1        0.2525
     18 C          62.4201   88.0297   12.0038 C.3     1  UNL1        0.1205
     19 C          63.1521   89.3381   11.9578 C.ar    1  UNL1       -0.0021
     20 C          63.1502   90.1549   10.6997 C.ar    1  UNL1        0.0005
     21 C          63.8823   91.4633   10.6539 C.ar    1  UNL1        0.0369
     22 C          64.6164   91.9549   11.8661 C.ar    1  UNL1        0.1468
     23 C          64.6183   91.1381   13.1242 C.ar    1  UNL1        0.0369
     24 C          63.8862   89.8297   13.1701 C.ar    1  UNL1        0.0005
     25 O          65.3485   93.2634   11.8201 O.3     1  UNL1       -0.4045
     26 C          66.1319   93.6420   10.5983 C.3     1  UNL1        0.5753
     27 F          66.9154   94.0206    9.3765 F       1  UNL1       -0.1328
     28 F          66.9966   92.4294   10.7770 F       1  UNL1       -0.1328
     29 F          65.2672   94.8546   10.4197 F       1  UNL1       -0.1328
@<TRIPOS>BOND
     1    14    15    1
     2    15     8    1
     3     8     9   ar
     4     9    10   ar
     5    10    11   ar
     6    11    12   ar
     7    12    16    1
     8    16    17    1
     9    12    13   ar
    10     1    13    1
    11     1     2    1
    12     2     3    1
    13     3     4    1
    14     3     5    1
    15     5     6    2
    16     5     7   am
    17     7    18    1
    18    18    19    1
    19    19    20   ar
    20    20    21   ar
    21    21    22   ar
    22    22    25    1
    23    25    26    1
    24    26    27    1
    25    26    28    1
    26    26    29    1
    27    22    23   ar
    28    23    24   ar
    29    13     8   ar
    30     7     1    1
    31    24    19   ar
@<TRIPOS>MOLECULE
*****
 29 31 0 0 0
SMALL
GASTEIGER

@<TRIPOS>ATOM
      1 C          61.5194   86.3741   10.0977 C.3     1  UNL1        0.1074
      2 C          60.4293   86.4128    9.0680 C.3     1  UNL1        0.0694
      3 C          59.7110   87.7228    9.2026 C.3     1  UNL1        0.2385
      4 F          58.5502   88.1813    8.3704 F       1  UNL1       -0.2273
      5 C          60.3571   88.4936   10.3154 C.2     1  UNL1        0.2588
      6 O          59.9560   89.8584   10.7914 O.2     1  UNL1       -0.2719
      7 N          61.4748   87.6601   10.8685 N.am    1  UNL1       -0.2708
      8 C          62.6568   84.6642   11.6891 C.ar    1  UNL1        0.1392
      9 C          63.6221   83.5374   11.9091 C.ar    1  UNL1        0.0368
     10 C          64.4152   82.9935   10.7580 C.ar    1  UNL1        0.0062
     11 C          64.2430   83.5765    9.3867 C.ar    1  UNL1        0.0368
     12 C          63.2778   84.7034    9.1666 C.ar    1  UNL1        0.1392
     13 C          62.4847   85.2472   10.3178 C.ar    1  UNL1        0.0637
     14 C          62.1687   84.7605   14.2390 C.3     1  UNL1        0.2525
     15 O          61.8637   85.2080   12.8403 O.3     1  UNL1       -0.4716
     16 O          63.1056   85.2864    7.7953 O.3     1  UNL1       -0.4716
     17 C          62.3634   84.5188    6.7417 C.3     1  UNL1        0.2525
     18 C          62.3876   88.0450   11.9949 C.3     1  UNL1        0.1205
     19 C          63.1297   89.3477   11.9472 C.ar    1  UNL1       -0.0021
     20 C          63.1422   90.1580   10.6850 C.ar    1  UNL1        0.0005
     21 C          63.8844   91.4606   10.6374 C.ar    1  UNL1        0.0369
     22 C          64.6139   91.9530   11.8520 C.ar    1  UNL1        0.1468
     23 C          64.6014   91.1427   13.1142 C.ar    1  UNL1        0.0369
     24 C          63.8592   89.8400   13.1618 C.ar    1  UNL1        0.0005
     25 O          65.3561   93.2557   11.8043 O.3     1  UNL1       -0.4045
     26 C          66.1600   93.6170   10.5906 C.3     1  UNL1        0.5753
     27 F          66.9639   93.9783    9.3768 F       1  UNL1       -0.1328
     28 F          67.0181   92.4043   10.7980 F       1  UNL1       -0.1328
     29 F          65.3018   94.8297   10.3832 F       1  UNL1       -0.1328
@<TRIPOS>BOND
     1    14    15    1
     2    15     8    1
     3     8     9   ar
     4     9    10   ar
     5    10    11   ar
     6    11    12   ar
     7    12    16    1
     8    16    17    1
     9    12    13   ar
    10     1    13    1
    11     1     2    1
    12     2     3    1
    13     3     4    1
    14     3     5    1
    15     5     6    2
    16     5     7   am
    17     7    18    1
    18    18    19    1
    19    19    20   ar
    20    20    21   ar
    21    21    22   ar
    22    22    25    1
    23    25    26    1
    24    26    27    1
    25    26    28    1
    26    26    29    1
    27    22    23   ar
    28    23    24   ar
    29    13     8   ar
    30     7     1    1
    31    24    19   ar
