@<TRIPOS>MOLECULE
*****
 45 49 0 0 0
SMALL
GASTEIGER

@<TRIPOS>ATOM
      1 N          62.8059   85.7300   12.3016 N.3     1  UNL1       -0.2699
      2 C          64.0709   85.5998   13.0971 C.3     1  UNL1        0.0924
      3 C          64.0248   85.6633   14.5950 C.3     1  UNL1        0.0950
      4 N          64.0241   86.9927   15.2896 N.am    1  UNL1       -0.2706
      5 C          63.1198   87.2250   16.4636 C.2     1  UNL1        0.4020
      6 O          62.2162   86.1279   16.9429 O.2     1  UNL1       -0.2264
      7 H          64.6172   87.7128   14.9750 H       1  UNL1        0.1527
      8 O          63.1191   88.5545   17.1583 O.3     1  UNL1       -0.4274
      9 C          62.8336   89.8060   16.3823 C.3     1  UNL1        0.2621
     10 C          63.9645   90.6754   15.9184 C.ar    1  UNL1        0.1323
     11 N          64.4038   91.9627   16.5508 N.ar    1  UNL1       -0.2374
     12 C          65.5655   92.4930   15.7640 C.ar    1  UNL1        0.1062
     13 C          65.8443   91.5334   14.6453 C.ar    1  UNL1        0.0573
     14 S          64.8549   90.4100   14.7407 S.2     1  UNL1       -0.0666
     15 C          63.9795   84.3973   15.3983 C.3     1  UNL1        0.0474
     16 C          63.4324   83.1410   14.7881 C.ar    1  UNL1       -0.0205
     17 C          61.9559   82.8780   14.8098 C.ar    1  UNL1       -0.0042
     18 C          61.4087   81.6217   14.1995 C.ar    1  UNL1       -0.0003
     19 C          62.3383   80.6284   13.5676 C.ar    1  UNL1       -0.0000
     20 C          63.8149   80.8914   13.5459 C.ar    1  UNL1       -0.0003
     21 C          64.3620   82.1477   14.1561 C.ar    1  UNL1       -0.0042
     22 C          62.2326   84.5328   11.6031 C.3     1  UNL1        0.0721
     23 C          63.1460   83.5212   10.9766 C.3     1  UNL1        0.0160
     24 C          63.3655   82.1625   10.3802 C.3     1  UNL1        0.0014
     25 C          64.5084   83.1279   10.4877 C.3     1  UNL1        0.0014
     26 C          62.1142   87.0574   12.2046 C.3     1  UNL1        0.0924
     27 C          62.0062   87.7518   10.8794 C.3     1  UNL1        0.0950
     28 O          61.1423   90.6231   10.9763 O.2     1  UNL1       -0.2264
     29 C          62.5435   90.2748   10.5697 C.2     1  UNL1        0.4020
     30 N          62.9755   88.8392   10.5213 N.am    1  UNL1       -0.2706
     31 H          63.8951   88.6106   10.2544 H       1  UNL1        0.1527
     32 O          63.5128   91.3622   10.2116 O.3     1  UNL1       -0.4291
     33 C          64.5157   91.8355   11.2215 C.3     1  UNL1        0.2447
     34 C          65.6268   92.7519   10.8025 C.ar    1  UNL1        0.0714
     35 C          67.0151   92.3352   10.4161 C.ar    1  UNL1        0.1053
     36 N          67.7911   93.5716   10.0711 N.ar    1  UNL1       -0.2350
     37 C          66.8825   94.7525   10.2443 C.ar    1  UNL1        0.1343
     38 S          65.5449   94.2459   10.6963 S.2     1  UNL1       -0.0652
     39 C          60.9290   87.3589    9.9124 C.3     1  UNL1        0.0474
     40 C          61.2430   86.4312    8.7762 C.ar    1  UNL1       -0.0205
     41 C          60.1607   86.0204    7.8224 C.ar    1  UNL1       -0.0042
     42 C          60.4747   85.0927    6.6863 C.ar    1  UNL1       -0.0003
     43 C          61.8709   84.5759    6.5039 C.ar    1  UNL1       -0.0000
     44 C          62.9532   84.9867    7.4577 C.ar    1  UNL1       -0.0003
     45 C          62.6392   85.9144    8.5939 C.ar    1  UNL1       -0.0042
@<TRIPOS>BOND
     1    28    29    2
     2    29    30   am
     3    30    27    1
     4    27    39    1
     5    39    40    1
     6    40    41   ar
     7    41    42   ar
     8    42    43   ar
     9    43    44   ar
    10    44    45   ar
    11    27    26    1
    12    26     1    1
    13     1    22    1
    14    22    23    1
    15    23    24    1
    16    24    25    1
    17     1     2    1
    18     3     2    1
    19     3    15    1
    20    15    16    1
    21    16    17   ar
    22    17    18   ar
    23    18    19   ar
    24    19    20   ar
    25    20    21   ar
    26     3     4    1
    27     4     5   am
    28     5     6    2
    29     5     8    1
    30     8     9    1
    31     9    10    1
    32    10    11   ar
    33    11    12   ar
    34    12    13   ar
    35    13    14   ar
    36    29    32    1
    37    32    33    1
    38    33    34    1
    39    34    35   ar
    40    35    36   ar
    41    36    37   ar
    42    37    38   ar
    43    45    40   ar
    44    25    23    1
    45    21    16   ar
    46    14    10   ar
    47    38    34   ar
    48    30    31    1
    49     4     7    1
@<TRIPOS>MOLECULE
*****
 45 49 0 0 0
SMALL
GASTEIGER

@<TRIPOS>ATOM
      1 N          62.7238   89.1738   11.4914 N.3     1  UNL1       -0.2699
      2 C          62.7268   88.1877   10.3611 C.3     1  UNL1        0.0924
      3 C          61.4633   87.4705    9.9882 C.3     1  UNL1        0.0950
      4 N          60.5128   88.0875    9.0053 N.am    1  UNL1       -0.2706
      5 C          60.1281   87.3396    7.7633 C.2     1  UNL1        0.4020
      6 O          60.6938   85.9748    7.5042 O.2     1  UNL1       -0.2264
      7 H          60.1415   88.9833    9.1755 H       1  UNL1        0.1527
      8 O          59.1776   87.9566    6.7805 O.3     1  UNL1       -0.4274
      9 C          58.7388   89.3804    6.9540 C.3     1  UNL1        0.2621
     10 C          59.0269   90.3899    5.8825 C.ar    1  UNL1        0.1323
     11 N          60.3800   90.7281    5.3306 N.ar    1  UNL1       -0.2374
     12 C          60.2018   91.7857    4.2819 C.ar    1  UNL1        0.1062
     13 C          58.7385   92.1010    4.1856 C.ar    1  UNL1        0.0573
     14 S          58.0123   91.2384    5.1748 S.2     1  UNL1       -0.0666
     15 C          61.1501   86.1363   10.5981 C.3     1  UNL1        0.0474
     16 C          62.2557   85.1627   10.8805 C.ar    1  UNL1       -0.0205
     17 C          62.6762   84.8952   12.2952 C.ar    1  UNL1       -0.0042
     18 C          63.7818   83.9215   12.5777 C.ar    1  UNL1       -0.0003
     19 C          64.4668   83.2154   11.4453 C.ar    1  UNL1       -0.0000
     20 C          64.0462   83.4830   10.0305 C.ar    1  UNL1       -0.0003
     21 C          62.9407   84.4566    9.7481 C.ar    1  UNL1       -0.0042
     22 C          61.8483   90.3899   11.4235 C.3     1  UNL1        0.0721
     23 C          60.3773   90.2709   11.6922 C.3     1  UNL1        0.0160
     24 C          58.9878   90.8253   11.5828 C.3     1  UNL1        0.0014
     25 C          59.2191   89.5106   12.2669 C.3     1  UNL1        0.0014
     26 C          63.5964   88.9439   12.6896 C.3     1  UNL1        0.0924
     27 C          63.9118   90.0801   13.6168 C.3     1  UNL1        0.0950
     28 O          66.5560   91.1834   14.5063 O.2     1  UNL1       -0.2264
     29 C          65.7265   91.9363   13.5087 C.2     1  UNL1        0.4020
     30 N          64.4044   91.3846   13.0640 N.am    1  UNL1       -0.2706
     31 H          63.8600   91.8788   12.4092 H       1  UNL1        0.1527
     32 O          66.2191   93.2408   12.9559 O.3     1  UNL1       -0.4291
     33 C          65.8005   93.6800   11.5841 C.3     1  UNL1        0.2447
     34 C          66.7519   93.5491   10.4319 C.ar    1  UNL1        0.0714
     35 C          66.9632   94.5597    9.3437 C.ar    1  UNL1        0.1053
     36 N          68.0010   94.0199    8.4048 N.ar    1  UNL1       -0.2350
     37 C          68.4312   92.6755    8.9127 C.ar    1  UNL1        0.1343
     38 S          67.6592   92.3846   10.1655 S.2     1  UNL1       -0.0652
     39 C          63.7347   89.9117   15.0967 C.3     1  UNL1        0.0474
     40 C          63.6434   88.5368   15.6896 C.ar    1  UNL1       -0.0205
     41 C          62.9246   88.3267   16.9892 C.ar    1  UNL1       -0.0042
     42 C          62.8333   86.9518   17.5820 C.ar    1  UNL1       -0.0003
     43 C          63.4609   85.7871   16.8752 C.ar    1  UNL1       -0.0000
     44 C          64.1797   85.9973   15.5756 C.ar    1  UNL1       -0.0003
     45 C          64.2710   87.3721   14.9828 C.ar    1  UNL1       -0.0042
@<TRIPOS>BOND
     1    28    29    2
     2    29    30   am
     3    30    27    1
     4    27    39    1
     5    39    40    1
     6    40    41   ar
     7    41    42   ar
     8    42    43   ar
     9    43    44   ar
    10    44    45   ar
    11    27    26    1
    12    26     1    1
    13     1    22    1
    14    22    23    1
    15    23    24    1
    16    24    25    1
    17     1     2    1
    18     3     2    1
    19     3    15    1
    20    15    16    1
    21    16    17   ar
    22    17    18   ar
    23    18    19   ar
    24    19    20   ar
    25    20    21   ar
    26     3     4    1
    27     4     5   am
    28     5     6    2
    29     5     8    1
    30     8     9    1
    31     9    10    1
    32    10    11   ar
    33    11    12   ar
    34    12    13   ar
    35    13    14   ar
    36    29    32    1
    37    32    33    1
    38    33    34    1
    39    34    35   ar
    40    35    36   ar
    41    36    37   ar
    42    37    38   ar
    43    45    40   ar
    44    25    23    1
    45    21    16   ar
    46    14    10   ar
    47    38    34   ar
    48    30    31    1
    49     4     7    1
@<TRIPOS>MOLECULE
*****
 45 49 0 0 0
SMALL
GASTEIGER

@<TRIPOS>ATOM
      1 N          62.8360   85.7137   12.2974 N.3     1  UNL1       -0.2699
      2 C          62.1477   87.0447   12.2292 C.3     1  UNL1        0.0924
      3 C          61.9945   87.7431   10.9107 C.3     1  UNL1        0.0950
      4 N          62.9173   88.8682   10.5462 N.am    1  UNL1       -0.2706
      5 C          62.4150   90.2815   10.5508 C.2     1  UNL1        0.4020
      6 O          60.9900   90.5699   10.9198 O.2     1  UNL1       -0.2264
      7 H          63.8525   88.6789   10.3040 H       1  UNL1        0.1527
      8 O          63.3378   91.4066   10.1863 O.3     1  UNL1       -0.4274
      9 C          64.4201   91.8265   11.1361 C.3     1  UNL1        0.2621
     10 C          65.4635   92.8105   10.6966 C.ar    1  UNL1        0.1323
     11 N          65.2946   94.2989   10.6185 N.ar    1  UNL1       -0.2374
     12 C          66.5857   94.8870   10.1316 C.ar    1  UNL1        0.1062
     13 C          67.5526   93.7621    9.9087 C.ar    1  UNL1        0.0573
     14 S          66.8591   92.4787   10.2578 S.2     1  UNL1       -0.0666
     15 C          60.9185   87.3166    9.9565 C.3     1  UNL1        0.0474
     16 C          61.2502   86.4090    8.8092 C.ar    1  UNL1       -0.0205
     17 C          60.1835   86.0179    7.8298 C.ar    1  UNL1       -0.0042
     18 C          60.5151   85.1103    6.6824 C.ar    1  UNL1       -0.0003
     19 C          61.9134   84.5939    6.5145 C.ar    1  UNL1       -0.0000
     20 C          62.9801   84.9851    7.4940 C.ar    1  UNL1       -0.0003
     21 C          62.6484   85.8926    8.6413 C.ar    1  UNL1       -0.0042
     22 C          62.2473   84.5279   11.5923 C.3     1  UNL1        0.0721
     23 C          63.1478   83.4968   10.9789 C.3     1  UNL1        0.0160
     24 C          63.3536   82.1224   10.4144 C.3     1  UNL1        0.0014
     25 C          64.5016   83.0855   10.4810 C.3     1  UNL1        0.0014
     26 C          64.1130   85.5684   13.0708 C.3     1  UNL1        0.0924
     27 C          64.0930   85.6270   14.5695 C.3     1  UNL1        0.0950
     28 O          62.2374   86.1386   16.8706 O.2     1  UNL1       -0.2264
     29 C          63.1854   87.2098   16.4191 C.2     1  UNL1        0.4020
     30 N          64.1132   86.9540   15.2686 N.am    1  UNL1       -0.2706
     31 H          64.7353   87.6571   14.9722 H       1  UNL1        0.1527
     32 O          63.2055   88.5368   17.1182 O.3     1  UNL1       -0.4291
     33 C          62.8655   89.7875   16.3631 C.3     1  UNL1        0.2447
     34 C          63.9608   90.6664   15.8359 C.ar    1  UNL1        0.0714
     35 C          64.4164   91.9635   16.4360 C.ar    1  UNL1        0.1053
     36 N          65.5299   92.5013   15.5870 N.ar    1  UNL1       -0.2350
     37 C          65.7626   91.5366   14.4621 C.ar    1  UNL1        0.1343
     38 S          64.7927   90.4026   14.6159 S.2     1  UNL1       -0.0652
     39 C          64.0528   84.3586   15.3692 C.3     1  UNL1        0.0474
     40 C          63.4598   83.1156   14.7747 C.ar    1  UNL1       -0.0205
     41 C          64.3516   82.0829   14.1517 C.ar    1  UNL1       -0.0042
     42 C          63.7585   80.8400   13.5572 C.ar    1  UNL1       -0.0003
     43 C          62.2736   80.6297   13.5858 C.ar    1  UNL1       -0.0000
     44 C          61.3818   81.6624   14.2088 C.ar    1  UNL1       -0.0003
     45 C          61.9749   82.9054   14.8033 C.ar    1  UNL1       -0.0042
@<TRIPOS>BOND
     1    28    29    2
     2    29    30   am
     3    30    27    1
     4    27    39    1
     5    39    40    1
     6    40    41   ar
     7    41    42   ar
     8    42    43   ar
     9    43    44   ar
    10    44    45   ar
    11    27    26    1
    12    26     1    1
    13     1    22    1
    14    22    23    1
    15    23    24    1
    16    24    25    1
    17     1     2    1
    18     3     2    1
    19     3    15    1
    20    15    16    1
    21    16    17   ar
    22    17    18   ar
    23    18    19   ar
    24    19    20   ar
    25    20    21   ar
    26     3     4    1
    27     4     5   am
    28     5     6    2
    29     5     8    1
    30     8     9    1
    31     9    10    1
    32    10    11   ar
    33    11    12   ar
    34    12    13   ar
    35    13    14   ar
    36    29    32    1
    37    32    33    1
    38    33    34    1
    39    34    35   ar
    40    35    36   ar
    41    36    37   ar
    42    37    38   ar
    43    45    40   ar
    44    25    23    1
    45    21    16   ar
    46    14    10   ar
    47    38    34   ar
    48    30    31    1
    49     4     7    1
@<TRIPOS>MOLECULE
*****
 45 49 0 0 0
SMALL
GASTEIGER

@<TRIPOS>ATOM
      1 N          62.4951   90.0772   10.1924 N.3     1  UNL1       -0.2699
      2 C          63.3876   91.2548   10.4506 C.3     1  UNL1        0.0924
      3 C          64.0200   91.4353   11.7986 C.3     1  UNL1        0.0950
      4 N          63.1853   91.3227   13.0398 N.am    1  UNL1       -0.2706
      5 C          63.2945   90.1053   13.9092 C.2     1  UNL1        0.4020
      6 O          64.2385   89.0005   13.5374 O.2     1  UNL1       -0.2264
      7 H          62.5658   92.0479   13.2839 H       1  UNL1        0.1527
      8 O          62.4598   89.9927   15.1504 O.3     1  UNL1       -0.4274
      9 C          63.0823   89.5271   16.4332 C.3     1  UNL1        0.2621
     10 C          63.1135   88.0644   16.7642 C.ar    1  UNL1        0.1323
     11 N          63.7090   86.9808   15.9150 N.ar    1  UNL1       -0.2374
     12 C          63.5181   85.6751   16.6284 C.ar    1  UNL1        0.1062
     13 C          62.8047   85.9518   17.9185 C.ar    1  UNL1        0.0573
     14 S          62.5545   87.4285   18.0025 S.2     1  UNL1       -0.0666
     15 C          65.4873   91.7284   11.9056 C.3     1  UNL1        0.0474
     16 C          66.1217   92.7275   10.9839 C.ar    1  UNL1       -0.0205
     17 C          65.5761   94.1221   10.8996 C.ar    1  UNL1       -0.0042
     18 C          66.2104   95.1212    9.9779 C.ar    1  UNL1       -0.0003
     19 C          67.3904   94.7256    9.1406 C.ar    1  UNL1       -0.0000
     20 C          67.9360   93.3308    9.2250 C.ar    1  UNL1       -0.0003
     21 C          67.3016   92.3318   10.1466 C.ar    1  UNL1       -0.0042
     22 C          61.0389   90.2892    9.9020 C.3     1  UNL1        0.0721
     23 C          60.0422   90.2853   11.0230 C.3     1  UNL1        0.0160
     24 C          58.8749   90.9128   11.7257 C.3     1  UNL1        0.0014
     25 C          59.4832   89.6510   12.2620 C.3     1  UNL1        0.0014
     26 C          63.0588   88.6876   10.2247 C.3     1  UNL1        0.0924
     27 C          62.2573   87.5666   10.8172 C.3     1  UNL1        0.0950
     28 O          63.0995   84.6964   11.0461 O.2     1  UNL1       -0.2264
     29 C          63.0555   85.5648   12.2684 C.2     1  UNL1        0.4020
     30 N          62.6344   86.9999   12.1539 N.am    1  UNL1       -0.2706
     31 H          62.6056   87.5699   12.9561 H       1  UNL1        0.1527
     32 O          63.4326   84.9981   13.6051 O.3     1  UNL1       -0.4291
     33 C          64.0452   83.6319   13.6947 C.3     1  UNL1        0.2447
     34 C          63.1683   82.4150   13.6886 C.ar    1  UNL1        0.0714
     35 C          61.8781   82.2540   14.4367 C.ar    1  UNL1        0.1053
     36 N          61.3400   80.8849   14.1438 N.ar    1  UNL1       -0.2350
     37 C          62.2976   80.1995   13.2145 C.ar    1  UNL1        0.1343
     38 S          63.4275   81.1452   12.9332 S.2     1  UNL1       -0.0652
     39 C          61.0788   87.0124   10.0731 C.3     1  UNL1        0.0474
     40 C          61.2903   86.2147    8.8205 C.ar    1  UNL1       -0.0205
     41 C          60.1449   85.9738    7.8824 C.ar    1  UNL1       -0.0042
     42 C          60.3564   85.1761    6.6298 C.ar    1  UNL1       -0.0003
     43 C          61.7132   84.6193    6.3153 C.ar    1  UNL1       -0.0000
     44 C          62.8586   84.8603    7.2534 C.ar    1  UNL1       -0.0003
     45 C          62.6471   85.6579    8.5060 C.ar    1  UNL1       -0.0042
@<TRIPOS>BOND
     1    28    29    2
     2    29    30   am
     3    30    27    1
     4    27    39    1
     5    39    40    1
     6    40    41   ar
     7    41    42   ar
     8    42    43   ar
     9    43    44   ar
    10    44    45   ar
    11    27    26    1
    12    26     1    1
    13     1    22    1
    14    22    23    1
    15    23    24    1
    16    24    25    1
    17     1     2    1
    18     3     2    1
    19     3    15    1
    20    15    16    1
    21    16    17   ar
    22    17    18   ar
    23    18    19   ar
    24    19    20   ar
    25    20    21   ar
    26     3     4    1
    27     4     5   am
    28     5     6    2
    29     5     8    1
    30     8     9    1
    31     9    10    1
    32    10    11   ar
    33    11    12   ar
    34    12    13   ar
    35    13    14   ar
    36    29    32    1
    37    32    33    1
    38    33    34    1
    39    34    35   ar
    40    35    36   ar
    41    36    37   ar
    42    37    38   ar
    43    45    40   ar
    44    25    23    1
    45    21    16   ar
    46    14    10   ar
    47    38    34   ar
    48    30    31    1
    49     4     7    1
@<TRIPOS>MOLECULE
*****
 45 49 0 0 0
SMALL
GASTEIGER

@<TRIPOS>ATOM
      1 N          62.7806   90.0417   11.7219 N.3     1  UNL1       -0.2699
      2 C          63.9051   89.5057   12.5575 C.3     1  UNL1        0.0924
      3 C          63.9667   89.8203   14.0229 C.3     1  UNL1        0.0950
      4 N          63.7952   88.7248   15.0330 N.am    1  UNL1       -0.2706
      5 C          63.3089   89.0480   16.4147 C.2     1  UNL1        0.4020
      6 O          62.9942   90.4668   16.7862 O.2     1  UNL1       -0.2264
      7 H          64.0018   87.7936   14.7892 H       1  UNL1        0.1527
      8 O          63.1375   87.9525   17.4249 O.3     1  UNL1       -0.4274
      9 C          62.4222   86.6893   17.0472 C.3     1  UNL1        0.2621
     10 C          63.0976   85.6794   16.1674 C.ar    1  UNL1        0.1323
     11 N          64.4354   85.8388   15.5081 N.ar    1  UNL1       -0.2374
     12 C          64.7183   84.5906   14.7257 C.ar    1  UNL1        0.1062
     13 C          63.5553   83.6598   14.9016 C.ar    1  UNL1        0.0573
     14 S          62.5536   84.3326   15.7926 S.2     1  UNL1       -0.0666
     15 C          64.1997   91.2305   14.4781 C.3     1  UNL1        0.0474
     16 C          65.5923   91.7024   14.7745 C.ar    1  UNL1       -0.0205
     17 C          65.8682   92.4886   16.0218 C.ar    1  UNL1       -0.0042
     18 C          67.2608   92.9606   16.3183 C.ar    1  UNL1       -0.0003
     19 C          68.3776   92.6463   15.3675 C.ar    1  UNL1       -0.0000
     20 C          68.1017   91.8601   14.1201 C.ar    1  UNL1       -0.0003
     21 C          66.7091   91.3882   13.8237 C.ar    1  UNL1       -0.0042
     22 C          62.9957   91.2524   10.8629 C.3     1  UNL1        0.0721
     23 C          64.3071   91.9794   10.9061 C.3     1  UNL1        0.0160
     24 C          65.7358   92.1086   10.4679 C.3     1  UNL1        0.0014
     25 C          65.1497   93.1093   11.4191 C.3     1  UNL1        0.0014
     26 C          61.4411   89.3671   11.7454 C.3     1  UNL1        0.0924
     27 C          61.0719   88.3951   10.6643 C.3     1  UNL1        0.0950
     28 O          58.9575   87.2386    8.8776 O.2     1  UNL1       -0.2264
     29 C          59.8947   88.2847    8.3508 C.2     1  UNL1        0.4020
     30 N          60.9518   88.8629    9.2441 N.am    1  UNL1       -0.2706
     31 H          61.5669   89.5495    8.8983 H       1  UNL1        0.1527
     32 O          59.7746   88.7525    6.9306 O.3     1  UNL1       -0.4291
     33 C          58.7297   89.7626    6.5595 C.3     1  UNL1        0.2447
     34 C          59.0212   90.7911    5.5073 C.ar    1  UNL1        0.0714
     35 C          58.0118   91.6703    4.8302 C.ar    1  UNL1        0.1053
     36 N          58.7399   92.5436    3.8518 N.ar    1  UNL1       -0.2350
     37 C          60.1993   92.2041    3.9241 C.ar    1  UNL1        0.1343
     38 S          60.3731   91.1210    4.9473 S.2     1  UNL1       -0.0652
     39 C          60.8227   86.9554   11.0033 C.3     1  UNL1        0.0474
     40 C          61.8138   85.9062   10.5947 C.ar    1  UNL1       -0.0205
     41 C          62.3243   84.9225   11.6054 C.ar    1  UNL1       -0.0042
     42 C          63.3154   83.8734   11.1968 C.ar    1  UNL1       -0.0003
     43 C          63.7961   83.8079    9.7775 C.ar    1  UNL1       -0.0000
     44 C          63.2856   84.7917    8.7667 C.ar    1  UNL1       -0.0003
     45 C          62.2945   85.8408    9.1753 C.ar    1  UNL1       -0.0042
@<TRIPOS>BOND
     1    28    29    2
     2    29    30   am
     3    30    27    1
     4    27    39    1
     5    39    40    1
     6    40    41   ar
     7    41    42   ar
     8    42    43   ar
     9    43    44   ar
    10    44    45   ar
    11    27    26    1
    12    26     1    1
    13     1    22    1
    14    22    23    1
    15    23    24    1
    16    24    25    1
    17     1     2    1
    18     3     2    1
    19     3    15    1
    20    15    16    1
    21    16    17   ar
    22    17    18   ar
    23    18    19   ar
    24    19    20   ar
    25    20    21   ar
    26     3     4    1
    27     4     5   am
    28     5     6    2
    29     5     8    1
    30     8     9    1
    31     9    10    1
    32    10    11   ar
    33    11    12   ar
    34    12    13   ar
    35    13    14   ar
    36    29    32    1
    37    32    33    1
    38    33    34    1
    39    34    35   ar
    40    35    36   ar
    41    36    37   ar
    42    37    38   ar
    43    45    40   ar
    44    25    23    1
    45    21    16   ar
    46    14    10   ar
    47    38    34   ar
    48    30    31    1
    49     4     7    1
@<TRIPOS>MOLECULE
*****
 45 49 0 0 0
SMALL
GASTEIGER

@<TRIPOS>ATOM
      1 N          62.5863   88.9090   11.9073 N.3     1  UNL1       -0.2699
      2 C          63.8295   89.0719   12.7307 C.3     1  UNL1        0.0924
      3 C          63.9134   90.1655   13.7539 C.3     1  UNL1        0.0950
      4 N          64.1810   91.5770   13.3228 N.am    1  UNL1       -0.2706
      5 C          65.5705   92.1359   13.4056 C.2     1  UNL1        0.4020
      6 O          66.6924   91.2831   13.9194 O.2     1  UNL1       -0.2264
      7 H          63.4446   92.1367   12.9856 H       1  UNL1        0.1527
      8 O          65.8381   93.5474   12.9745 O.3     1  UNL1       -0.4274
      9 C          65.7114   93.9269   11.5289 C.3     1  UNL1        0.2621
     10 C          66.8021   93.5725   10.5620 C.ar    1  UNL1        0.1323
     11 N          67.7505   92.4172   10.6875 N.ar    1  UNL1       -0.2374
     12 C          68.6704   92.4419    9.5030 C.ar    1  UNL1        0.1062
     13 C          68.2906   93.6124    8.6454 C.ar    1  UNL1        0.0573
     14 S          67.1359   94.3113    9.2999 S.2     1  UNL1       -0.0666
     15 C          63.7296   89.8475   15.2083 C.3     1  UNL1        0.0474
     16 C          63.6826   88.4191   15.6636 C.ar    1  UNL1       -0.0205
     17 C          64.3545   87.3510   14.8527 C.ar    1  UNL1       -0.0042
     18 C          64.3076   85.9224   15.3080 C.ar    1  UNL1       -0.0003
     19 C          63.5886   85.5621   16.5742 C.ar    1  UNL1       -0.0000
     20 C          62.9167   86.6303   17.3851 C.ar    1  UNL1       -0.0003
     21 C          62.9637   88.0587   16.9298 C.ar    1  UNL1       -0.0042
     22 C          61.7705   90.1113   11.5349 C.3     1  UNL1        0.0721
     23 C          60.2849   90.1034   11.7429 C.3     1  UNL1        0.0160
     24 C          59.0512   89.4361   12.2745 C.3     1  UNL1        0.0014
     25 C          58.9457   90.7569   11.5715 C.3     1  UNL1        0.0014
     26 C          62.1590   87.5437   11.4563 C.3     1  UNL1        0.0924
     27 C          61.9322   87.2723    9.9986 C.3     1  UNL1        0.0950
     28 O          59.1841   86.7727    8.9037 O.2     1  UNL1       -0.2264
     29 C          59.8945   88.0561    8.5902 C.2     1  UNL1        0.4020
     30 N          61.2684   88.3059    9.1376 N.am    1  UNL1       -0.2706
     31 H          61.7346   89.1482    8.9319 H       1  UNL1        0.1527
     32 O          59.2307   89.0897    7.7293 O.3     1  UNL1       -0.4291
     33 C          59.7776   89.3938    6.3660 C.3     1  UNL1        0.2447
     34 C          59.1920   90.5117    5.5553 C.ar    1  UNL1        0.0714
     35 C          57.7452   90.9057    5.5122 C.ar    1  UNL1        0.1053
     36 N          57.6094   92.0695    4.5756 N.ar    1  UNL1       -0.2350
     37 C          58.9722   92.3948    4.0398 C.ar    1  UNL1        0.1343
     38 S          59.9503   91.4320    4.6454 S.2     1  UNL1       -0.0652
     39 C          62.3690   85.9673    9.4018 C.3     1  UNL1        0.0474
     40 C          62.8394   84.8555   10.2922 C.ar    1  UNL1       -0.0205
     41 C          62.3935   84.8010   11.7233 C.ar    1  UNL1       -0.0042
     42 C          62.8639   83.6893   12.6137 C.ar    1  UNL1       -0.0003
     43 C          63.7803   82.6320   12.0729 C.ar    1  UNL1       -0.0000
     44 C          64.2262   82.6865   10.6418 C.ar    1  UNL1       -0.0003
     45 C          63.7557   83.7983    9.7514 C.ar    1  UNL1       -0.0042
@<TRIPOS>BOND
     1    28    29    2
     2    29    30   am
     3    30    27    1
     4    27    39    1
     5    39    40    1
     6    40    41   ar
     7    41    42   ar
     8    42    43   ar
     9    43    44   ar
    10    44    45   ar
    11    27    26    1
    12    26     1    1
    13     1    22    1
    14    22    23    1
    15    23    24    1
    16    24    25    1
    17     1     2    1
    18     3     2    1
    19     3    15    1
    20    15    16    1
    21    16    17   ar
    22    17    18   ar
    23    18    19   ar
    24    19    20   ar
    25    20    21   ar
    26     3     4    1
    27     4     5   am
    28     5     6    2
    29     5     8    1
    30     8     9    1
    31     9    10    1
    32    10    11   ar
    33    11    12   ar
    34    12    13   ar
    35    13    14   ar
    36    29    32    1
    37    32    33    1
    38    33    34    1
    39    34    35   ar
    40    35    36   ar
    41    36    37   ar
    42    37    38   ar
    43    45    40   ar
    44    25    23    1
    45    21    16   ar
    46    14    10   ar
    47    38    34   ar
    48    30    31    1
    49     4     7    1
@<TRIPOS>MOLECULE
*****
 45 49 0 0 0
SMALL
GASTEIGER

@<TRIPOS>ATOM
      1 N          62.5463   85.7929   12.0287 N.3     1  UNL1       -0.2699
      2 C          61.6859   87.0125   11.8794 C.3     1  UNL1        0.0924
      3 C          61.6914   87.7811   10.5913 C.3     1  UNL1        0.0950
      4 N          62.6274   88.9396   10.4132 N.am    1  UNL1       -0.2706
      5 C          62.0937   90.3414   10.4099 C.2     1  UNL1        0.4020
      6 O          60.6239   90.5846   10.5847 O.2     1  UNL1       -0.2264
      7 H          63.5921   88.7800   10.2985 H       1  UNL1        0.1527
      8 O          63.0297   91.4999   10.2319 O.3     1  UNL1       -0.4274
      9 C          64.3009   91.5659   11.0253 C.3     1  UNL1        0.2621
     10 C          65.3330   92.6056   10.7031 C.ar    1  UNL1        0.1323
     11 N          65.1326   94.0914   10.7505 N.ar    1  UNL1       -0.2374
     12 C          66.4225   94.7460   10.3536 C.ar    1  UNL1        0.1062
     13 C          67.4202   93.6649   10.0609 C.ar    1  UNL1        0.0573
     14 S          66.7469   92.3419   10.2768 S.2     1  UNL1       -0.0666
     15 C          60.7609   87.3911    9.4812 C.3     1  UNL1        0.0474
     16 C          61.1970   86.3884    8.4545 C.ar    1  UNL1       -0.0205
     17 C          60.2055   85.8441    7.4693 C.ar    1  UNL1       -0.0042
     18 C          60.6416   84.8413    6.4425 C.ar    1  UNL1       -0.0003
     19 C          62.0692   84.3828    6.4009 C.ar    1  UNL1       -0.0000
     20 C          63.0608   84.9272    7.3861 C.ar    1  UNL1       -0.0003
     21 C          62.6247   85.9300    8.4128 C.ar    1  UNL1       -0.0042
     22 C          62.1147   84.4915   11.4205 C.3     1  UNL1        0.0721
     23 C          63.1421   83.5229   10.9142 C.3     1  UNL1        0.0160
     24 C          64.5580   83.2163   10.5252 C.3     1  UNL1        0.0014
     25 C          63.5058   82.1519   10.4265 C.3     1  UNL1        0.0014
     26 C          63.8382   85.8747   12.7864 C.3     1  UNL1        0.0924
     27 C          63.8249   85.9782   14.2828 C.3     1  UNL1        0.0950
     28 O          63.3982   88.8072   13.3799 O.2     1  UNL1       -0.2264
     29 C          64.3379   88.5149   14.5119 C.2     1  UNL1        0.4020
     30 N          64.5513   87.1004   14.9634 N.am    1  UNL1       -0.2706
     31 H          65.1680   86.9086   15.7064 H       1  UNL1        0.1527
     32 O          65.0642   89.6371   15.1925 O.3     1  UNL1       -0.4291
     33 C          65.2121   90.9615   14.5040 C.3     1  UNL1        0.2447
     34 C          66.4392   91.7930   14.7334 C.ar    1  UNL1        0.0714
     35 C          67.6700   91.8038   13.8759 C.ar    1  UNL1        0.1053
     36 N          68.6425   92.7773   14.4730 N.ar    1  UNL1       -0.2350
     37 C          68.0128   93.3683   15.6996 C.ar    1  UNL1        0.1343
     38 S          66.6510   92.7599   15.8604 S.2     1  UNL1       -0.0652
     39 C          63.0854   84.9596   15.0985 C.3     1  UNL1        0.0474
     40 C          63.0291   83.5315   14.6433 C.ar    1  UNL1       -0.0205
     41 C          64.2907   82.8162   14.2602 C.ar    1  UNL1       -0.0042
     42 C          64.2344   81.3880   13.8050 C.ar    1  UNL1       -0.0003
     43 C          62.9166   80.6752   13.7329 C.ar    1  UNL1       -0.0000
     44 C          61.6551   81.3905   14.1160 C.ar    1  UNL1       -0.0003
     45 C          61.7113   82.8186   14.5712 C.ar    1  UNL1       -0.0042
@<TRIPOS>BOND
     1    28    29    2
     2    29    30   am
     3    30    27    1
     4    27    39    1
     5    39    40    1
     6    40    41   ar
     7    41    42   ar
     8    42    43   ar
     9    43    44   ar
    10    44    45   ar
    11    27    26    1
    12    26     1    1
    13     1    22    1
    14    22    23    1
    15    23    24    1
    16    24    25    1
    17     1     2    1
    18     3     2    1
    19     3    15    1
    20    15    16    1
    21    16    17   ar
    22    17    18   ar
    23    18    19   ar
    24    19    20   ar
    25    20    21   ar
    26     3     4    1
    27     4     5   am
    28     5     6    2
    29     5     8    1
    30     8     9    1
    31     9    10    1
    32    10    11   ar
    33    11    12   ar
    34    12    13   ar
    35    13    14   ar
    36    29    32    1
    37    32    33    1
    38    33    34    1
    39    34    35   ar
    40    35    36   ar
    41    36    37   ar
    42    37    38   ar
    43    45    40   ar
    44    25    23    1
    45    21    16   ar
    46    14    10   ar
    47    38    34   ar
    48    30    31    1
    49     4     7    1
@<TRIPOS>MOLECULE
*****
 45 49 0 0 0
SMALL
GASTEIGER

@<TRIPOS>ATOM
      1 N          62.4124   89.5642   12.0175 N.3     1  UNL1       -0.2699
      2 C          62.8239   89.8007   13.4404 C.3     1  UNL1        0.0924
      3 C          64.2617   90.0727   13.7699 C.3     1  UNL1        0.0950
      4 N          64.9887   91.1930   13.0870 N.am    1  UNL1       -0.2706
      5 C          65.5565   92.3216   13.8956 C.2     1  UNL1        0.4020
      6 O          65.3973   92.3299   15.3870 O.2     1  UNL1       -0.2264
      7 H          65.0932   91.1876   12.1081 H       1  UNL1        0.1527
      8 O          66.2836   93.4419   13.2127 O.3     1  UNL1       -0.4274
      9 C          65.8672   93.8793   11.8396 C.3     1  UNL1        0.2621
     10 C          66.7799   93.6520   10.6711 C.ar    1  UNL1        0.1323
     11 N          67.0236   94.6103    9.5432 N.ar    1  UNL1       -0.2374
     12 C          68.0034   93.9770    8.6003 C.ar    1  UNL1        0.1062
     13 C          68.3653   92.6273    9.1456 C.ar    1  UNL1        0.0573
     14 S          67.6092   92.4264   10.4254 S.2     1  UNL1       -0.0666
     15 C          64.9726   89.2244   14.7825 C.3     1  UNL1        0.0474
     16 C          64.2263   88.1515   15.5186 C.ar    1  UNL1       -0.0205
     17 C          64.3583   86.7193   15.0930 C.ar    1  UNL1       -0.0042
     18 C          63.6120   85.6463   15.8291 C.ar    1  UNL1       -0.0003
     19 C          62.7339   86.0056   16.9909 C.ar    1  UNL1       -0.0000
     20 C          62.6019   87.4379   17.4165 C.ar    1  UNL1       -0.0003
     21 C          63.3482   88.5109   16.6804 C.ar    1  UNL1       -0.0042
     22 C          61.4962   90.5331   11.3307 C.3     1  UNL1        0.0721
     23 C          60.0350   90.5524   11.6692 C.3     1  UNL1        0.0160
     24 C          58.8428   89.9121   12.3164 C.3     1  UNL1        0.0014
     25 C          58.6962   91.2262   11.6081 C.3     1  UNL1        0.0014
     26 C          62.9170   88.3586   11.2813 C.3     1  UNL1        0.0924
     27 C          62.0755   87.1192   11.2059 C.3     1  UNL1        0.0950
     28 O          62.9087   85.4233    8.8757 O.2     1  UNL1       -0.2264
     29 C          63.1143   84.9268   10.2761 C.2     1  UNL1        0.4020
     30 N          62.6978   85.7747   11.4412 N.am    1  UNL1       -0.2706
     31 H          62.8327   85.4489   12.3603 H       1  UNL1        0.1527
     32 O          63.7366   83.5824   10.5114 O.3     1  UNL1       -0.4291
     33 C          64.1086   83.1612   11.9021 C.3     1  UNL1        0.2447
     34 C          63.2192   82.2250   12.6653 C.ar    1  UNL1        0.0714
     35 C          62.9302   80.7967   12.3095 C.ar    1  UNL1        0.1053
     36 N          61.9951   80.2417   13.3427 N.ar    1  UNL1       -0.2350
     37 C          61.7061   81.3269   14.3371 C.ar    1  UNL1        0.1343
     38 S          62.4627   82.5527   13.9185 S.2     1  UNL1       -0.0652
     39 C          60.6118   87.2242   10.8953 C.3     1  UNL1        0.0474
     40 C          60.1614   87.5140    9.4941 C.ar    1  UNL1       -0.0205
     41 C          60.1701   88.9230    8.9798 C.ar    1  UNL1       -0.0042
     42 C          59.7197   89.2127    7.5787 C.ar    1  UNL1       -0.0003
     43 C          59.2605   88.0935    6.6919 C.ar    1  UNL1       -0.0000
     44 C          59.2517   86.6845    7.2063 C.ar    1  UNL1       -0.0003
     45 C          59.7022   86.3947    8.6074 C.ar    1  UNL1       -0.0042
@<TRIPOS>BOND
     1    28    29    2
     2    29    30   am
     3    30    27    1
     4    27    39    1
     5    39    40    1
     6    40    41   ar
     7    41    42   ar
     8    42    43   ar
     9    43    44   ar
    10    44    45   ar
    11    27    26    1
    12    26     1    1
    13     1    22    1
    14    22    23    1
    15    23    24    1
    16    24    25    1
    17     1     2    1
    18     3     2    1
    19     3    15    1
    20    15    16    1
    21    16    17   ar
    22    17    18   ar
    23    18    19   ar
    24    19    20   ar
    25    20    21   ar
    26     3     4    1
    27     4     5   am
    28     5     6    2
    29     5     8    1
    30     8     9    1
    31     9    10    1
    32    10    11   ar
    33    11    12   ar
    34    12    13   ar
    35    13    14   ar
    36    29    32    1
    37    32    33    1
    38    33    34    1
    39    34    35   ar
    40    35    36   ar
    41    36    37   ar
    42    37    38   ar
    43    45    40   ar
    44    25    23    1
    45    21    16   ar
    46    14    10   ar
    47    38    34   ar
    48    30    31    1
    49     4     7    1
@<TRIPOS>MOLECULE
*****
 45 49 0 0 0
SMALL
GASTEIGER

@<TRIPOS>ATOM
      1 N          62.4875   87.8968   12.2638 N.3     1  UNL1       -0.2699
      2 C          63.8366   87.7059   12.8910 C.3     1  UNL1        0.0924
      3 C          63.9657   87.6280   14.3834 C.3     1  UNL1        0.0950
      4 N          63.5176   88.7779   15.2360 N.am    1  UNL1       -0.2706
      5 C          64.1899   90.1127   15.1087 C.2     1  UNL1        0.4020
      6 O          65.3104   90.2976   14.1287 O.2     1  UNL1       -0.2264
      7 H          62.7822   88.6566   15.8792 H       1  UNL1        0.1527
      8 O          63.7418   91.2626   15.9613 O.3     1  UNL1       -0.4274
      9 C          64.7565   92.1182   16.6601 C.3     1  UNL1        0.2621
     10 C          65.9351   92.6541   15.9026 C.ar    1  UNL1        0.1323
     11 N          65.8778   93.4791   14.6512 N.ar    1  UNL1       -0.2374
     12 C          67.2852   93.7939   14.2387 C.ar    1  UNL1        0.1062
     13 C          68.2123   93.1634   15.2352 C.ar    1  UNL1        0.0573
     14 S          67.3779   92.4589   16.2636 S.2     1  UNL1       -0.0666
     15 C          64.5429   86.4002   15.0233 C.3     1  UNL1        0.0474
     16 C          64.0258   85.0438   14.6453 C.ar    1  UNL1       -0.0205
     17 C          62.7304   84.5490   15.2169 C.ar    1  UNL1       -0.0042
     18 C          62.2132   83.1926   14.8389 C.ar    1  UNL1       -0.0003
     19 C          62.9916   82.3311   13.8892 C.ar    1  UNL1       -0.0000
     20 C          64.2871   82.8260   13.3175 C.ar    1  UNL1       -0.0003
     21 C          64.8042   84.1823   13.6955 C.ar    1  UNL1       -0.0042
     22 C          61.7371   86.7152   11.7246 C.3     1  UNL1        0.0721
     23 C          62.3781   85.8215   10.7045 C.3     1  UNL1        0.0160
     24 C          62.7506   85.5341    9.2802 C.3     1  UNL1        0.0014
     25 C          63.1157   84.5612   10.3619 C.3     1  UNL1        0.0014
     26 C          61.8887   89.2692   12.1758 C.3     1  UNL1        0.0924
     27 C          61.8467   89.9861   10.8589 C.3     1  UNL1        0.0950
     28 O          63.5228   92.0262   12.2833 O.2     1  UNL1       -0.2264
     29 C          63.9551   91.5018   10.9460 C.2     1  UNL1        0.4020
     30 N          63.1170   90.4818   10.2339 N.am    1  UNL1       -0.2706
     31 H          63.4008   90.1376    9.3562 H       1  UNL1        0.1527
     32 O          65.2254   91.9974   10.3210 O.3     1  UNL1       -0.4291
     33 C          66.1126   92.9435   11.0745 C.3     1  UNL1        0.2447
     34 C          66.5647   94.2209   10.4313 C.ar    1  UNL1        0.0714
     35 C          67.4546   94.3359    9.2291 C.ar    1  UNL1        0.1053
     36 N          67.6462   95.7937    8.9320 N.ar    1  UNL1       -0.2350
     37 C          66.8748   96.5796    9.9505 C.ar    1  UNL1        0.1343
     38 S          66.2064   95.6076   10.8771 S.2     1  UNL1       -0.0652
     39 C          60.5343   90.2074   10.1670 C.3     1  UNL1        0.0474
     40 C          60.0425   89.2141    9.1563 C.ar    1  UNL1       -0.0205
     41 C          59.7897   87.7927    9.5631 C.ar    1  UNL1       -0.0042
     42 C          59.2979   86.7994    8.5524 C.ar    1  UNL1       -0.0003
     43 C          59.0589   87.2276    7.1348 C.ar    1  UNL1       -0.0000
     44 C          59.3116   88.6490    6.7280 C.ar    1  UNL1       -0.0003
     45 C          59.8035   89.6423    7.7387 C.ar    1  UNL1       -0.0042
@<TRIPOS>BOND
     1    28    29    2
     2    29    30   am
     3    30    27    1
     4    27    39    1
     5    39    40    1
     6    40    41   ar
     7    41    42   ar
     8    42    43   ar
     9    43    44   ar
    10    44    45   ar
    11    27    26    1
    12    26     1    1
    13     1    22    1
    14    22    23    1
    15    23    24    1
    16    24    25    1
    17     1     2    1
    18     3     2    1
    19     3    15    1
    20    15    16    1
    21    16    17   ar
    22    17    18   ar
    23    18    19   ar
    24    19    20   ar
    25    20    21   ar
    26     3     4    1
    27     4     5   am
    28     5     6    2
    29     5     8    1
    30     8     9    1
    31     9    10    1
    32    10    11   ar
    33    11    12   ar
    34    12    13   ar
    35    13    14   ar
    36    29    32    1
    37    32    33    1
    38    33    34    1
    39    34    35   ar
    40    35    36   ar
    41    36    37   ar
    42    37    38   ar
    43    45    40   ar
    44    25    23    1
    45    21    16   ar
    46    14    10   ar
    47    38    34   ar
    48    30    31    1
    49     4     7    1
