@<TRIPOS>MOLECULE
*****
 33 37 0 0 0
SMALL
GASTEIGER

@<TRIPOS>ATOM
      1 N          63.4376   88.8247   13.5755 N.3     1  UNL1       -0.2679
      2 C          62.9451   89.1437   12.1951 C.3     1  UNL1        0.0978
      3 C          63.0195   90.5500   11.6786 C.3     1  UNL1        0.0224
      4 C          62.5269   90.8690   10.2981 C.3     1  UNL1        0.0065
      5 C          61.9601   89.7817    9.4341 C.3     1  UNL1        0.0277
      6 C          61.8858   88.3753    9.9506 C.ar    1  UNL1       -0.0073
      7 C          61.3190   87.2880    9.0867 C.ar    1  UNL1       -0.0015
      8 C          61.2447   85.8817    9.6032 C.ar    1  UNL1        0.0203
      9 C          61.7372   85.5627   10.9836 C.ar    1  UNL1        0.0985
     10 N          62.3040   86.6500   11.8475 N.ar    1  UNL1       -0.2471
     11 C          62.3783   88.0563   11.3310 C.ar    1  UNL1        0.0695
     12 C          63.2281   89.8047   14.6917 C.3     1  UNL1        0.0886
     13 C          68.9623   93.4964   15.5521 C.ar    1  UNL1        0.0204
     14 C          69.1507   92.5588   14.3966 C.ar    1  UNL1        0.0984
     15 N          68.0416   91.6329   13.9934 N.ar    1  UNL1       -0.2484
     16 C          66.7440   91.6447   14.7457 C.ar    1  UNL1        0.0577
     17 C          66.5555   92.5823   15.9013 C.ar    1  UNL1        0.0073
     18 C          67.6647   93.5082   16.3044 C.ar    1  UNL1       -0.0002
     19 C          65.2579   92.5941   16.6537 C.3     1  UNL1        0.0968
     20 N          64.1487   91.6682   16.2505 N.3     1  UNL1       -0.2934
     21 C          64.3373   90.7305   15.0949 C.3     1  UNL1        0.0764
     22 C          65.6348   90.7188   14.3426 C.3     1  UNL1        0.0626
     23 H          63.3436   92.2531   16.0268 H       1  UNL1        0.1236
     24 C          64.1396   87.5257   13.8399 C.3     1  UNL1        0.0738
     25 C          64.0171   86.8664   15.1816 C.3     1  UNL1        0.0347
     26 C          64.5330   85.4723   15.3821 C.3     1  UNL1        0.0736
     27 N          63.9163   84.3292   14.6317 N.3     1  UNL1       -0.2703
     28 C          62.7428   83.5970   15.2120 C.3     1  UNL1        0.0894
     29 C          62.1263   82.4540   14.4615 C.3     1  UNL1        0.0862
     30 N          62.6832   82.0431   13.1307 N.3     1  UNL1       -0.2951
     31 C          63.8567   82.7752   12.5504 C.3     1  UNL1        0.0862
     32 C          64.4733   83.9183   13.3009 C.3     1  UNL1        0.0894
     33 H          61.9228   82.1237   12.4557 H       1  UNL1        0.1233
@<TRIPOS>BOND
     1    13    14   ar
     2    14    15   ar
     3    15    16   ar
     4    16    17   ar
     5    17    18   ar
     6    17    19    1
     7    19    20    1
     8    20    21    1
     9    21    12    1
    10    12     1    1
    11     1    24    1
    12    24    25    1
    13    25    26    1
    14    26    27    1
    15    27    28    1
    16    28    29    1
    17    29    30    1
    18    30    31    1
    19    31    32    1
    20     2     1    1
    21     2     3    1
    22     3     4    1
    23     4     5    1
    24     5     6    1
    25     6     7   ar
    26     7     8   ar
    27     8     9   ar
    28     9    10   ar
    29    10    11   ar
    30    21    22    1
    31    18    13   ar
    32    32    27    1
    33    11     2    1
    34    22    16    1
    35    11     6   ar
    36    20    23    1
    37    30    33    1
@<TRIPOS>MOLECULE
*****
 33 37 0 0 0
SMALL
GASTEIGER

@<TRIPOS>ATOM
      1 N          60.8961   87.5550   10.1828 N.3     1  UNL1       -0.2679
      2 C          61.7839   86.4095    9.7961 C.3     1  UNL1        0.0978
      3 C          62.0936   86.1554    8.3506 C.3     1  UNL1        0.0224
      4 C          62.9814   85.0098    7.9639 C.3     1  UNL1        0.0065
      5 C          63.5594   84.1183    9.0227 C.3     1  UNL1        0.0277
      6 C          63.2496   84.3723   10.4683 C.ar    1  UNL1       -0.0073
      7 C          63.8275   83.4808   11.5271 C.ar    1  UNL1       -0.0015
      8 C          63.5178   83.7349   12.9726 C.ar    1  UNL1        0.0203
      9 C          62.6300   84.8804   13.3593 C.ar    1  UNL1        0.0985
     10 N          62.0521   85.7720   12.3005 N.ar    1  UNL1       -0.2471
     11 C          62.3619   85.5179   10.8549 C.ar    1  UNL1        0.0695
     12 C          61.1851   88.3409   11.4274 C.3     1  UNL1        0.0886
     13 C          66.1253   92.9943   12.5187 C.ar    1  UNL1        0.0204
     14 C          65.9681   92.1479   13.7470 C.ar    1  UNL1        0.0984
     15 N          64.9486   91.0479   13.7744 N.ar    1  UNL1       -0.2484
     16 C          64.0863   90.7944   12.5735 C.ar    1  UNL1        0.0577
     17 C          64.2436   91.6408   11.3452 C.ar    1  UNL1        0.0073
     18 C          65.2630   92.7408   11.3178 C.ar    1  UNL1       -0.0002
     19 C          63.3813   91.3873   10.1442 C.3     1  UNL1        0.0968
     20 N          62.3618   90.2874   10.1716 N.3     1  UNL1       -0.2934
     21 C          62.2046   89.4409   11.4000 C.3     1  UNL1        0.0764
     22 C          63.0669   89.6944   12.6009 C.3     1  UNL1        0.0626
     23 H          62.5908   89.6545    9.4052 H       1  UNL1        0.1236
     24 C          59.7194   87.9148    9.3250 C.3     1  UNL1        0.0738
     25 C          59.8329   89.0259    8.3238 C.3     1  UNL1        0.0347
     26 C          59.3767   88.8119    6.9109 C.3     1  UNL1        0.0736
     27 N          59.1346   89.9900    6.0144 N.3     1  UNL1       -0.2703
     28 C          60.2914   90.6816    5.3560 C.3     1  UNL1        0.0894
     29 C          60.0493   91.8596    4.4596 C.3     1  UNL1        0.0862
     30 N          58.6504   92.3459    4.2215 N.3     1  UNL1       -0.2951
     31 C          57.4937   91.6543    4.8799 C.3     1  UNL1        0.0862
     32 C          57.7358   90.4763    5.7763 C.3     1  UNL1        0.0894
     33 H          58.4889   92.2971    3.2155 H       1  UNL1        0.1233
@<TRIPOS>BOND
     1    13    14   ar
     2    14    15   ar
     3    15    16   ar
     4    16    17   ar
     5    17    18   ar
     6    17    19    1
     7    19    20    1
     8    20    21    1
     9    21    12    1
    10    12     1    1
    11     1    24    1
    12    24    25    1
    13    25    26    1
    14    26    27    1
    15    27    28    1
    16    28    29    1
    17    29    30    1
    18    30    31    1
    19    31    32    1
    20     2     1    1
    21     2     3    1
    22     3     4    1
    23     4     5    1
    24     5     6    1
    25     6     7   ar
    26     7     8   ar
    27     8     9   ar
    28     9    10   ar
    29    10    11   ar
    30    21    22    1
    31    18    13   ar
    32    32    27    1
    33    11     2    1
    34    22    16    1
    35    11     6   ar
    36    20    23    1
    37    30    33    1
@<TRIPOS>MOLECULE
*****
 33 37 0 0 0
SMALL
GASTEIGER

@<TRIPOS>ATOM
      1 N          62.7478   89.9082   12.1705 N.3     1  UNL1       -0.2679
      2 C          62.3927   88.6851   11.3780 C.3     1  UNL1        0.0978
      3 C          61.6769   88.8225   10.0670 C.3     1  UNL1        0.0224
      4 C          61.3218   87.5993    9.2746 C.3     1  UNL1        0.0065
      5 C          61.6825   86.2389    9.7932 C.3     1  UNL1        0.0277
      6 C          62.3983   86.1015   11.1042 C.ar    1  UNL1       -0.0073
      7 C          62.7591   84.7410   11.6228 C.ar    1  UNL1       -0.0015
      8 C          63.4749   84.6037   12.9338 C.ar    1  UNL1        0.0203
      9 C          63.8299   85.8267   13.7263 C.ar    1  UNL1        0.0985
     10 N          63.4692   87.1872   13.2077 N.ar    1  UNL1       -0.2471
     11 C          62.7534   87.3246   11.8966 C.ar    1  UNL1        0.0695
     12 C          62.9386   89.8107   13.6551 C.3     1  UNL1        0.0886
     13 C          68.5598   93.1673   15.7493 C.ar    1  UNL1        0.0204
     14 C          68.8664   92.4463   14.4702 C.ar    1  UNL1        0.0984
     15 N          67.8035   91.6308   13.7956 N.ar    1  UNL1       -0.2484
     16 C          66.4340   91.5363   14.4000 C.ar    1  UNL1        0.0577
     17 C          66.1274   92.2573   15.6791 C.ar    1  UNL1        0.0073
     18 C          67.1903   93.0728   16.3537 C.ar    1  UNL1       -0.0002
     19 C          64.7578   92.1628   16.2836 C.3     1  UNL1        0.0968
     20 N          63.6948   91.3473   15.6089 N.3     1  UNL1       -0.2934
     21 C          64.0015   90.6262   14.3298 C.3     1  UNL1        0.0764
     22 C          65.3711   90.7207   13.7254 C.3     1  UNL1        0.0626
     23 H          62.9192   91.9797   15.4118 H       1  UNL1        0.1236
     24 C          62.9120   91.2288   11.4783 C.3     1  UNL1        0.0738
     25 C          64.2318   91.5965   10.8676 C.3     1  UNL1        0.0347
     26 C          64.8803   92.9038   11.2143 C.3     1  UNL1        0.0736
     27 N          66.1528   93.3136   10.5337 N.3     1  UNL1       -0.2703
     28 C          66.3485   94.7372   10.1036 C.3     1  UNL1        0.0894
     29 C          67.6209   95.1468    9.4230 C.3     1  UNL1        0.0862
     30 N          68.6975   94.1328    9.1726 N.3     1  UNL1       -0.2951
     31 C          68.5018   92.7092    9.6026 C.3     1  UNL1        0.0862
     32 C          67.2294   92.2996   10.2832 C.3     1  UNL1        0.0894
     33 H          69.5359   94.4706    9.6453 H       1  UNL1        0.1233
@<TRIPOS>BOND
     1    13    14   ar
     2    14    15   ar
     3    15    16   ar
     4    16    17   ar
     5    17    18   ar
     6    17    19    1
     7    19    20    1
     8    20    21    1
     9    21    12    1
    10    12     1    1
    11     1    24    1
    12    24    25    1
    13    25    26    1
    14    26    27    1
    15    27    28    1
    16    28    29    1
    17    29    30    1
    18    30    31    1
    19    31    32    1
    20     2     1    1
    21     2     3    1
    22     3     4    1
    23     4     5    1
    24     5     6    1
    25     6     7   ar
    26     7     8   ar
    27     8     9   ar
    28     9    10   ar
    29    10    11   ar
    30    21    22    1
    31    18    13   ar
    32    32    27    1
    33    11     2    1
    34    22    16    1
    35    11     6   ar
    36    20    23    1
    37    30    33    1
@<TRIPOS>MOLECULE
*****
 33 37 0 0 0
SMALL
GASTEIGER

@<TRIPOS>ATOM
      1 N          62.9679   90.1312   13.0508 N.3     1  UNL1       -0.2679
      2 C          63.9402   91.1195   12.4783 C.3     1  UNL1        0.0978
      3 C          63.9559   91.3875   11.0025 C.3     1  UNL1        0.0224
      4 C          64.9282   92.3759   10.4300 C.3     1  UNL1        0.0065
      5 C          65.8847   93.0964   11.3332 C.3     1  UNL1        0.0277
      6 C          65.8690   92.8284   12.8090 C.ar    1  UNL1       -0.0073
      7 C          66.8256   93.5488   13.7123 C.ar    1  UNL1       -0.0015
      8 C          66.8099   93.2808   15.1881 C.ar    1  UNL1        0.0203
      9 C          65.8377   92.2925   15.7606 C.ar    1  UNL1        0.0985
     10 N          64.8811   91.5721   14.8573 N.ar    1  UNL1       -0.2471
     11 C          64.8968   91.8400   13.3815 C.ar    1  UNL1        0.0695
     12 C          61.5759   90.0425   12.4988 C.3     1  UNL1        0.0886
     13 C          61.3697   85.4238    7.4121 C.ar    1  UNL1        0.0204
     14 C          62.5700   85.1553    8.2707 C.ar    1  UNL1        0.0984
     15 N          62.8513   86.0254    9.4598 N.ar    1  UNL1       -0.2484
     16 C          61.9323   87.1639    9.7902 C.ar    1  UNL1        0.0577
     17 C          60.7321   87.4323    8.9316 C.ar    1  UNL1        0.0073
     18 C          60.4508   86.5623    7.7426 C.ar    1  UNL1       -0.0002
     19 C          59.8130   88.5709    9.2621 C.3     1  UNL1        0.0968
     20 N          60.0943   89.4409   10.4511 N.3     1  UNL1       -0.2934
     21 C          61.2946   89.1724   11.3098 C.3     1  UNL1        0.0764
     22 C          62.2136   88.0339   10.9793 C.3     1  UNL1        0.0626
     23 H          59.2778   89.3811   11.0595 H       1  UNL1        0.1236
     24 C          63.3876   89.2314   14.1752 C.3     1  UNL1        0.0738
     25 C          64.2757   88.0539   13.9020 C.3     1  UNL1        0.0347
     26 C          64.3166   86.9057   14.8664 C.3     1  UNL1        0.0736
     27 N          63.6946   85.5921   14.4954 N.3     1  UNL1       -0.2703
     28 C          63.3178   84.6117   15.5662 C.3     1  UNL1        0.0894
     29 C          62.6958   83.2981   15.1952 C.3     1  UNL1        0.0862
     30 N          62.4507   82.9650   13.7533 N.3     1  UNL1       -0.2951
     31 C          62.8276   83.9454   12.6825 C.3     1  UNL1        0.0862
     32 C          63.4495   85.2589   13.0535 C.3     1  UNL1        0.0894
     33 H          61.4498   82.7937   13.6567 H       1  UNL1        0.1233
@<TRIPOS>BOND
     1    13    14   ar
     2    14    15   ar
     3    15    16   ar
     4    16    17   ar
     5    17    18   ar
     6    17    19    1
     7    19    20    1
     8    20    21    1
     9    21    12    1
    10    12     1    1
    11     1    24    1
    12    24    25    1
    13    25    26    1
    14    26    27    1
    15    27    28    1
    16    28    29    1
    17    29    30    1
    18    30    31    1
    19    31    32    1
    20     2     1    1
    21     2     3    1
    22     3     4    1
    23     4     5    1
    24     5     6    1
    25     6     7   ar
    26     7     8   ar
    27     8     9   ar
    28     9    10   ar
    29    10    11   ar
    30    21    22    1
    31    18    13   ar
    32    32    27    1
    33    11     2    1
    34    22    16    1
    35    11     6   ar
    36    20    23    1
    37    30    33    1
@<TRIPOS>MOLECULE
*****
 33 37 0 0 0
SMALL
GASTEIGER

@<TRIPOS>ATOM
      1 N          63.5400   88.6667   13.9926 N.3     1  UNL1       -0.2679
      2 C          63.2460   89.2230   12.6310 C.3     1  UNL1        0.0978
      3 C          63.7134   90.6010   12.2668 C.3     1  UNL1        0.0224
      4 C          63.4193   91.1572   10.9051 C.3     1  UNL1        0.0065
      5 C          62.6578   90.3356    9.9077 C.3     1  UNL1        0.0277
      6 C          62.1903   88.9576   10.2719 C.ar    1  UNL1       -0.0073
      7 C          61.4288   88.1359    9.2744 C.ar    1  UNL1       -0.0015
      8 C          60.9614   86.7579    9.6386 C.ar    1  UNL1        0.0203
      9 C          61.2554   86.2016   11.0002 C.ar    1  UNL1        0.0985
     10 N          62.0169   87.0233   11.9976 N.ar    1  UNL1       -0.2471
     11 C          62.4844   88.4013   11.6335 C.ar    1  UNL1        0.0695
     12 C          64.4238   87.4632   14.1362 C.3     1  UNL1        0.0886
     13 C          62.1788   81.0037   13.4393 C.ar    1  UNL1        0.0204
     14 C          62.9674   81.3836   12.2212 C.ar    1  UNL1        0.0984
     15 N          63.5741   82.7515   12.1169 N.ar    1  UNL1       -0.2484
     16 C          63.3922   83.7395   13.2308 C.ar    1  UNL1        0.0577
     17 C          62.6037   83.3596   14.4489 C.ar    1  UNL1        0.0073
     18 C          61.9970   81.9917   14.5532 C.ar    1  UNL1       -0.0002
     19 C          62.4218   84.3476   15.5629 C.3     1  UNL1        0.0968
     20 N          63.0285   85.7154   15.4587 N.3     1  UNL1       -0.2934
     21 C          63.8171   86.0953   14.2405 C.3     1  UNL1        0.0764
     22 C          63.9989   85.1073   13.1266 C.3     1  UNL1        0.0626
     23 H          63.6524   85.8226   16.2585 H       1  UNL1        0.1236
     24 C          62.9503   89.3138   15.2105 C.3     1  UNL1        0.0738
     25 C          63.8074   90.1716   16.0934 C.3     1  UNL1        0.0347
     26 C          64.1370   91.5762   15.6830 C.3     1  UNL1        0.0736
     27 N          65.5457   91.9398   15.3178 N.3     1  UNL1       -0.2703
     28 C          66.3837   92.7423   16.2685 C.3     1  UNL1        0.0894
     29 C          67.7923   93.1059   15.9032 C.3     1  UNL1        0.0862
     30 N          68.3630   92.6671   14.5872 N.3     1  UNL1       -0.2951
     31 C          67.5250   91.8646   13.6365 C.3     1  UNL1        0.0862
     32 C          66.1164   91.5010   14.0018 C.3     1  UNL1        0.0894
     33 H          69.1891   92.1066   14.7967 H       1  UNL1        0.1233
@<TRIPOS>BOND
     1    13    14   ar
     2    14    15   ar
     3    15    16   ar
     4    16    17   ar
     5    17    18   ar
     6    17    19    1
     7    19    20    1
     8    20    21    1
     9    21    12    1
    10    12     1    1
    11     1    24    1
    12    24    25    1
    13    25    26    1
    14    26    27    1
    15    27    28    1
    16    28    29    1
    17    29    30    1
    18    30    31    1
    19    31    32    1
    20     2     1    1
    21     2     3    1
    22     3     4    1
    23     4     5    1
    24     5     6    1
    25     6     7   ar
    26     7     8   ar
    27     8     9   ar
    28     9    10   ar
    29    10    11   ar
    30    21    22    1
    31    18    13   ar
    32    32    27    1
    33    11     2    1
    34    22    16    1
    35    11     6   ar
    36    20    23    1
    37    30    33    1
@<TRIPOS>MOLECULE
*****
 33 37 0 0 0
SMALL
GASTEIGER

@<TRIPOS>ATOM
      1 N          63.8302   89.8944   13.5189 N.3     1  UNL1       -0.2679
      2 C          64.7147   91.0560   13.8628 C.3     1  UNL1        0.0978
      3 C          65.1826   91.2502   15.2746 C.3     1  UNL1        0.0224
      4 C          66.0672   92.4118   15.6186 C.3     1  UNL1        0.0065
      5 C          66.4837   93.3793   14.5506 C.3     1  UNL1        0.0277
      6 C          66.0158   93.1851   13.1388 C.ar    1  UNL1       -0.0073
      7 C          66.4324   94.1525   12.0709 C.ar    1  UNL1       -0.0015
      8 C          65.9644   93.9584   10.6590 C.ar    1  UNL1        0.0203
      9 C          65.0799   92.7968   10.3151 C.ar    1  UNL1        0.0985
     10 N          64.6634   91.8294   11.3830 N.ar    1  UNL1       -0.2471
     11 C          65.1313   92.0235   12.7948 C.ar    1  UNL1        0.0695
     12 C          62.5164   90.1291   12.8339 C.3     1  UNL1        0.0886
     13 C          59.6845   86.7031    7.5905 C.ar    1  UNL1        0.0204
     14 C          59.3324   88.1566    7.4747 C.ar    1  UNL1        0.0984
     15 N          59.8284   89.1324    8.5002 N.ar    1  UNL1       -0.2484
     16 C          60.6765   88.6549    9.6416 C.ar    1  UNL1        0.0577
     17 C          61.0286   87.2014    9.7574 C.ar    1  UNL1        0.0073
     18 C          60.5326   86.2255    8.7319 C.ar    1  UNL1       -0.0002
     19 C          61.8767   86.7238   10.8988 C.3     1  UNL1        0.0968
     20 N          62.3726   87.6997   11.9243 N.3     1  UNL1       -0.2934
     21 C          62.0205   89.1532   11.8084 C.3     1  UNL1        0.0764
     22 C          61.1724   89.6308   10.6671 C.3     1  UNL1        0.0626
     23 H          63.3910   87.6419   11.9174 H       1  UNL1        0.1236
     24 C          64.2594   88.4982   13.8598 C.3     1  UNL1        0.0738
     25 C          63.8674   87.8932   15.1752 C.3     1  UNL1        0.0347
     26 C          64.3264   86.5102   15.5311 C.3     1  UNL1        0.0736
     27 N          63.7041   85.3188   14.8653 N.3     1  UNL1       -0.2703
     28 C          64.0390   84.9965   13.4392 C.3     1  UNL1        0.0894
     29 C          63.4167   83.8052   12.7734 C.3     1  UNL1        0.0862
     30 N          62.4593   82.9361   13.5338 N.3     1  UNL1       -0.2951
     31 C          62.1244   83.2583   14.9599 C.3     1  UNL1        0.0862
     32 C          62.7467   84.4497   15.6257 C.3     1  UNL1        0.0894
     33 H          62.8495   81.9936   13.5287 H       1  UNL1        0.1233
@<TRIPOS>BOND
     1    13    14   ar
     2    14    15   ar
     3    15    16   ar
     4    16    17   ar
     5    17    18   ar
     6    17    19    1
     7    19    20    1
     8    20    21    1
     9    21    12    1
    10    12     1    1
    11     1    24    1
    12    24    25    1
    13    25    26    1
    14    26    27    1
    15    27    28    1
    16    28    29    1
    17    29    30    1
    18    30    31    1
    19    31    32    1
    20     2     1    1
    21     2     3    1
    22     3     4    1
    23     4     5    1
    24     5     6    1
    25     6     7   ar
    26     7     8   ar
    27     8     9   ar
    28     9    10   ar
    29    10    11   ar
    30    21    22    1
    31    18    13   ar
    32    32    27    1
    33    11     2    1
    34    22    16    1
    35    11     6   ar
    36    20    23    1
    37    30    33    1
@<TRIPOS>MOLECULE
*****
 33 37 0 0 0
SMALL
GASTEIGER

@<TRIPOS>ATOM
      1 N          62.3714   89.3352   12.5325 N.3     1  UNL1       -0.2679
      2 C          63.3256   90.1381   13.3660 C.3     1  UNL1        0.0978
      3 C          63.4070   89.9065   14.8458 C.3     1  UNL1        0.0224
      4 C          64.3613   90.7095   15.6793 C.3     1  UNL1        0.0065
      5 C          65.2341   91.7440   15.0330 C.3     1  UNL1        0.0277
      6 C          65.1527   91.9757   13.5532 C.ar    1  UNL1       -0.0073
      7 C          66.0256   93.0103   12.9069 C.ar    1  UNL1       -0.0015
      8 C          65.9442   93.2420   11.4272 C.ar    1  UNL1        0.0203
      9 C          64.9900   92.4390   10.5937 C.ar    1  UNL1        0.0985
     10 N          64.1171   91.4044   11.2400 N.ar    1  UNL1       -0.2471
     11 C          64.1985   91.1728   12.7197 C.ar    1  UNL1        0.0695
     12 C          62.8700   88.1614   11.7428 C.3     1  UNL1        0.0886
     13 C          63.3064   81.6104   13.7786 C.ar    1  UNL1        0.0204
     14 C          62.6491   81.6632   12.4314 C.ar    1  UNL1        0.0984
     15 N          62.4304   82.9839   11.7548 N.ar    1  UNL1       -0.2484
     16 C          62.8689   84.2519   12.4254 C.ar    1  UNL1        0.0577
     17 C          63.5262   84.1992   13.7726 C.ar    1  UNL1        0.0073
     18 C          63.7450   82.8784   14.4493 C.ar    1  UNL1       -0.0002
     19 C          63.9648   85.4672   14.4433 C.3     1  UNL1        0.0968
     20 N          63.7460   86.7880   13.7667 N.3     1  UNL1       -0.2934
     21 C          63.0887   86.8406   12.4194 C.3     1  UNL1        0.0764
     22 C          62.6502   85.5726   11.7488 C.3     1  UNL1        0.0626
     23 H          64.6635   87.2217   13.6639 H       1  UNL1        0.1236
     24 C          60.9186   89.7060   12.4888 C.3     1  UNL1        0.0738
     25 C          60.3623   90.4191   11.2921 C.3     1  UNL1        0.0347
     26 C          60.9016   90.1221    9.9243 C.3     1  UNL1        0.0736
     27 N          60.2017   89.1323    9.0408 N.3     1  UNL1       -0.2703
     28 C          59.6546   89.5671    7.7136 C.3     1  UNL1        0.0894
     29 C          58.9548   88.5773    6.8302 C.3     1  UNL1        0.0862
     30 N          58.8019   87.1527    7.2740 N.3     1  UNL1       -0.2951
     31 C          59.3490   86.7178    8.6012 C.3     1  UNL1        0.0862
     32 C          60.0488   87.7076    9.4846 C.3     1  UNL1        0.0894
     33 H          59.2528   86.5736    6.5657 H       1  UNL1        0.1233
@<TRIPOS>BOND
     1    13    14   ar
     2    14    15   ar
     3    15    16   ar
     4    16    17   ar
     5    17    18   ar
     6    17    19    1
     7    19    20    1
     8    20    21    1
     9    21    12    1
    10    12     1    1
    11     1    24    1
    12    24    25    1
    13    25    26    1
    14    26    27    1
    15    27    28    1
    16    28    29    1
    17    29    30    1
    18    30    31    1
    19    31    32    1
    20     2     1    1
    21     2     3    1
    22     3     4    1
    23     4     5    1
    24     5     6    1
    25     6     7   ar
    26     7     8   ar
    27     8     9   ar
    28     9    10   ar
    29    10    11   ar
    30    21    22    1
    31    18    13   ar
    32    32    27    1
    33    11     2    1
    34    22    16    1
    35    11     6   ar
    36    20    23    1
    37    30    33    1
@<TRIPOS>MOLECULE
*****
 33 37 0 0 0
SMALL
GASTEIGER

@<TRIPOS>ATOM
      1 N          61.8073   87.8044   11.0281 N.3     1  UNL1       -0.2679
      2 C          60.9620   87.4166    9.8512 C.3     1  UNL1        0.0978
      3 C          59.5964   88.0130    9.6796 C.3     1  UNL1        0.0224
      4 C          58.7511   87.6251    8.5026 C.3     1  UNL1        0.0065
      5 C          59.2715   86.6409    7.4974 C.3     1  UNL1        0.0277
      6 C          60.6370   86.0445    7.6691 C.ar    1  UNL1       -0.0073
      7 C          61.1573   85.0602    6.6639 C.ar    1  UNL1       -0.0015
      8 C          62.5229   84.4638    6.8355 C.ar    1  UNL1        0.0203
      9 C          63.3682   84.8516    8.0124 C.ar    1  UNL1        0.0985
     10 N          62.8479   85.8359    9.0176 N.ar    1  UNL1       -0.2471
     11 C          61.4823   86.4323    8.8459 C.ar    1  UNL1        0.0695
     12 C          61.7018   89.1851   11.6048 C.3     1  UNL1        0.0886
     13 C          66.9582   92.7017   14.2981 C.ar    1  UNL1        0.0204
     14 C          66.5237   93.3661   13.0254 C.ar    1  UNL1        0.0984
     15 N          65.3855   92.7957   12.2322 N.ar    1  UNL1       -0.2484
     16 C          64.6818   91.5609   12.7117 C.ar    1  UNL1        0.0577
     17 C          65.1163   90.8964   13.9844 C.ar    1  UNL1        0.0073
     18 C          66.2545   91.4669   14.7776 C.ar    1  UNL1       -0.0002
     19 C          64.4127   89.6615   14.4639 C.3     1  UNL1        0.0968
     20 N          63.2745   89.0911   13.6707 N.3     1  UNL1       -0.2934
     21 C          62.8400   89.7556   12.3980 C.3     1  UNL1        0.0764
     22 C          63.5436   90.9904   11.9185 C.3     1  UNL1        0.0626
     23 H          62.4627   89.0781   14.2881 H       1  UNL1        0.1236
     24 C          62.7581   86.8115   11.6283 C.3     1  UNL1        0.0738
     25 C          62.2288   85.6029   12.3417 C.3     1  UNL1        0.0347
     26 C          63.1758   84.6576   13.0198 C.3     1  UNL1        0.0736
     27 N          62.8792   83.1874   13.0435 N.3     1  UNL1       -0.2703
     28 C          63.2510   82.3283   11.8715 C.3     1  UNL1        0.0894
     29 C          62.9545   80.8581   11.8952 C.3     1  UNL1        0.0862
     30 N          62.2861   80.2471   13.0910 N.3     1  UNL1       -0.2951
     31 C          61.9143   81.1062   14.2630 C.3     1  UNL1        0.0862
     32 C          62.2109   82.5763   14.2393 C.3     1  UNL1        0.0894
     33 H          62.9149   79.5251   13.4428 H       1  UNL1        0.1233
@<TRIPOS>BOND
     1    13    14   ar
     2    14    15   ar
     3    15    16   ar
     4    16    17   ar
     5    17    18   ar
     6    17    19    1
     7    19    20    1
     8    20    21    1
     9    21    12    1
    10    12     1    1
    11     1    24    1
    12    24    25    1
    13    25    26    1
    14    26    27    1
    15    27    28    1
    16    28    29    1
    17    29    30    1
    18    30    31    1
    19    31    32    1
    20     2     1    1
    21     2     3    1
    22     3     4    1
    23     4     5    1
    24     5     6    1
    25     6     7   ar
    26     7     8   ar
    27     8     9   ar
    28     9    10   ar
    29    10    11   ar
    30    21    22    1
    31    18    13   ar
    32    32    27    1
    33    11     2    1
    34    22    16    1
    35    11     6   ar
    36    20    23    1
    37    30    33    1
@<TRIPOS>MOLECULE
*****
 33 37 0 0 0
SMALL
GASTEIGER

@<TRIPOS>ATOM
      1 N          62.1439   89.2139   11.8560 N.3     1  UNL1       -0.2679
      2 C          63.1860   90.2743   12.0544 C.3     1  UNL1        0.0978
      3 C          63.7683   90.9848   10.8686 C.3     1  UNL1        0.0224
      4 C          64.8105   92.0453   11.0671 C.3     1  UNL1        0.0065
      5 C          65.2703   92.3952   12.4513 C.3     1  UNL1        0.0277
      6 C          64.6881   91.6847   13.6371 C.ar    1  UNL1       -0.0073
      7 C          65.1479   92.0346   15.0213 C.ar    1  UNL1       -0.0015
      8 C          64.5656   91.3241   16.2070 C.ar    1  UNL1        0.0203
      9 C          63.5235   90.2636   16.0086 C.ar    1  UNL1        0.0985
     10 N          63.0637   89.9137   14.6244 N.ar    1  UNL1       -0.2471
     11 C          63.6459   90.6243   13.4386 C.ar    1  UNL1        0.0695
     12 C          62.5048   87.9250   11.1786 C.3     1  UNL1        0.0886
     13 C          63.5561   81.7304   13.9662 C.ar    1  UNL1        0.0204
     14 C          62.8525   81.5644   12.6520 C.ar    1  UNL1        0.0984
     15 N          62.5015   82.7701   11.8316 N.ar    1  UNL1       -0.2484
     16 C          62.8541   84.1418   12.3255 C.ar    1  UNL1        0.0577
     17 C          63.5577   84.3078   13.6397 C.ar    1  UNL1        0.0073
     18 C          63.9087   83.1021   14.4601 C.ar    1  UNL1       -0.0002
     19 C          63.9104   85.6796   14.1337 C.3     1  UNL1        0.0968
     20 N          63.5594   86.8853   13.3133 N.3     1  UNL1       -0.2934
     21 C          62.8558   86.7193   11.9990 C.3     1  UNL1        0.0764
     22 C          62.5032   85.3476   11.5051 C.3     1  UNL1        0.0626
     23 H          64.4334   87.3743   13.1197 H       1  UNL1        0.1236
     24 C          60.7409   89.4422   12.3349 C.3     1  UNL1        0.0738
     25 C          59.7276   90.0629   11.4195 C.3     1  UNL1        0.0347
     26 C          60.0463   90.2520    9.9660 C.3     1  UNL1        0.0736
     27 N          59.7713   89.1483    8.9881 N.3     1  UNL1       -0.2703
     28 C          59.7374   87.7234    9.4554 C.3     1  UNL1        0.0894
     29 C          59.4625   86.6197    8.4775 C.3     1  UNL1        0.0862
     30 N          59.2214   86.9410    7.0323 N.3     1  UNL1       -0.2951
     31 C          59.2553   88.3659    6.5649 C.3     1  UNL1        0.0862
     32 C          59.5302   89.4695    7.5428 C.3     1  UNL1        0.0894
     33 H          58.2975   86.5768    6.7998 H       1  UNL1        0.1233
@<TRIPOS>BOND
     1    13    14   ar
     2    14    15   ar
     3    15    16   ar
     4    16    17   ar
     5    17    18   ar
     6    17    19    1
     7    19    20    1
     8    20    21    1
     9    21    12    1
    10    12     1    1
    11     1    24    1
    12    24    25    1
    13    25    26    1
    14    26    27    1
    15    27    28    1
    16    28    29    1
    17    29    30    1
    18    30    31    1
    19    31    32    1
    20     2     1    1
    21     2     3    1
    22     3     4    1
    23     4     5    1
    24     5     6    1
    25     6     7   ar
    26     7     8   ar
    27     8     9   ar
    28     9    10   ar
    29    10    11   ar
    30    21    22    1
    31    18    13   ar
    32    32    27    1
    33    11     2    1
    34    22    16    1
    35    11     6   ar
    36    20    23    1
    37    30    33    1
