@<TRIPOS>MOLECULE
*****
 32 35 0 0 0
SMALL
GASTEIGER

@<TRIPOS>ATOM
      1 F          62.4944   86.5175   18.3130 F       1  UNL1       -0.2012
      2 C          63.0928   87.1606   17.0971 C.ar    1  UNL1        0.1710
      3 C          63.1545   88.6557   16.9931 C.ar    1  UNL1        0.0301
      4 C          63.7529   89.2988   15.7773 C.ar    1  UNL1        0.0037
      5 C          64.2897   88.4468   14.6655 C.ar    1  UNL1        0.0965
      6 N          64.2281   86.9517   14.7695 N.ar    1  UNL1       -0.2274
      7 C          63.6296   86.3086   15.9854 C.ar    1  UNL1        0.1564
      8 N          63.5679   84.8135   16.0895 N.pl3   1  UNL1       -0.3126
      9 H          64.3052   84.3188   16.5149 H       1  UNL1        0.1486
     10 C          62.3829   84.0721   15.5454 C.3     1  UNL1        0.1170
     11 C          62.5398   83.1827   14.3477 C.ar    1  UNL1        0.0166
     12 C          62.0507   81.7655   14.3967 C.ar    1  UNL1        0.0004
     13 C          62.2076   80.8761   13.1991 C.ar    1  UNL1        0.0228
     14 C          62.8535   81.4038   11.9524 C.ar    1  UNL1        0.1526
     15 N          63.3426   82.8210   11.9034 N.ar    1  UNL1       -0.2401
     16 C          63.1858   83.7105   13.1011 C.ar    1  UNL1        0.0961
     17 C          63.0104   80.5145   10.7548 C.3     1  UNL1        0.4348
     18 F          63.1673   79.6252    9.5571 F       1  UNL1       -0.1644
     19 F          63.4508   81.6928    9.9376 F       1  UNL1       -0.1644
     20 F          62.5699   79.3362   11.5719 F       1  UNL1       -0.1644
     21 C          63.8146   90.7940   15.6732 C.3     1  UNL1        0.0559
     22 C          64.9075   91.4461   14.8792 C.ar    1  UNL1        0.0043
     23 C          66.2002   91.9742   15.4267 C.ar    1  UNL1        0.0966
     24 N          66.9911   92.5391   14.2841 N.ar    1  UNL1       -0.2273
     25 C          66.1872   92.3600   13.0305 C.ar    1  UNL1        0.1403
     26 N          66.4614   92.7247   11.6016 N.ar    1  UNL1       -0.3367
     27 C          65.4478   92.4140   10.5405 C.ar    1  UNL1        0.0850
     28 C          64.1600   91.7384   10.9083 C.ar    1  UNL1        0.0747
     29 CL         63.1463   91.4277    9.8471 Cl      1  UNL1       -0.0807
     30 C          63.8858   91.3737   12.3372 C.ar    1  UNL1        0.0156
     31 C          64.8994   91.6845   13.3983 C.ar    1  UNL1        0.0327
     32 H          67.3066   93.1681   11.3603 H       1  UNL1        0.1674
@<TRIPOS>BOND
     1     1     2    1
     2     2     3   ar
     3     3     4   ar
     4     4    21    1
     5    21    22    1
     6    22    23   ar
     7    23    24   ar
     8    24    25   ar
     9    25    26   ar
    10    26    27   ar
    11    27    28   ar
    12    28    29    1
    13    28    30   ar
    14    30    31   ar
    15     4     5   ar
    16     5     6   ar
    17     6     7   ar
    18     7     8    1
    19     8    10    1
    20    10    11    1
    21    11    12   ar
    22    12    13   ar
    23    13    14   ar
    24    14    17    1
    25    17    18    1
    26    17    19    1
    27    17    20    1
    28    14    15   ar
    29    15    16   ar
    30     7     2   ar
    31    16    11   ar
    32    31    22   ar
    33    31    25    1
    34    26    32    1
    35     8     9    1
@<TRIPOS>MOLECULE
*****
 32 35 0 0 0
SMALL
GASTEIGER

@<TRIPOS>ATOM
      1 F          64.9518   81.9016   11.4302 F       1  UNL1       -0.2012
      2 C          63.9573   83.0236   11.3859 C.ar    1  UNL1        0.1710
      3 C          63.7210   83.7661   10.1042 C.ar    1  UNL1        0.0301
      4 C          62.7264   84.8881   10.0599 C.ar    1  UNL1        0.0037
      5 C          61.9682   85.2676   11.2973 C.ar    1  UNL1        0.0965
      6 N          62.2045   84.5251   12.5790 N.ar    1  UNL1       -0.2274
      7 C          63.1991   83.4031   12.6233 C.ar    1  UNL1        0.1564
      8 N          63.4354   82.6606   13.9050 N.pl3   1  UNL1       -0.3126
      9 H          63.0677   81.7552   14.0243 H       1  UNL1        0.1486
     10 C          64.2320   83.2976   15.0048 C.3     1  UNL1        0.1170
     11 C          64.0229   84.7444   15.3414 C.ar    1  UNL1        0.0166
     12 C          64.8035   85.8026   14.6198 C.ar    1  UNL1        0.0004
     13 C          64.5945   87.2494   14.9563 C.ar    1  UNL1        0.0228
     14 C          63.6047   87.6378   16.0144 C.ar    1  UNL1        0.1526
     15 N          62.8241   86.5796   16.7360 N.ar    1  UNL1       -0.2401
     16 C          63.0332   85.1327   16.3994 C.ar    1  UNL1        0.0961
     17 C          63.3956   89.0845   16.3509 C.3     1  UNL1        0.4348
     18 F          63.1865   90.5312   16.6874 F       1  UNL1       -0.1644
     19 F          63.6209   89.4513   14.9139 F       1  UNL1       -0.1644
     20 F          63.1703   88.7178   17.7878 F       1  UNL1       -0.1644
     21 C          62.4901   85.6307    8.7781 C.3     1  UNL1        0.0559
     22 C          61.4626   86.7221    8.7221 C.ar    1  UNL1        0.0043
     23 C          60.1918   86.6966    7.9256 C.ar    1  UNL1        0.0966
     24 N          59.4694   87.9894    8.1640 N.ar    1  UNL1       -0.2273
     25 C          60.2936   88.8138    9.1080 C.ar    1  UNL1        0.1403
     26 N          60.0816   90.1764    9.6980 N.ar    1  UNL1       -0.3367
     27 C          61.1015   90.7558   10.6329 C.ar    1  UNL1        0.0850
     28 C          62.3334   89.9726   10.9778 C.ar    1  UNL1        0.0747
     29 CL         63.3533   90.5521   11.9127 Cl      1  UNL1       -0.0807
     30 C          62.5454   88.6099   10.3878 C.ar    1  UNL1        0.0156
     31 C          61.5255   88.0305    9.4529 C.ar    1  UNL1        0.0327
     32 H          59.2731   90.6905    9.4716 H       1  UNL1        0.1674
@<TRIPOS>BOND
     1     1     2    1
     2     2     3   ar
     3     3     4   ar
     4     4    21    1
     5    21    22    1
     6    22    23   ar
     7    23    24   ar
     8    24    25   ar
     9    25    26   ar
    10    26    27   ar
    11    27    28   ar
    12    28    29    1
    13    28    30   ar
    14    30    31   ar
    15     4     5   ar
    16     5     6   ar
    17     6     7   ar
    18     7     8    1
    19     8    10    1
    20    10    11    1
    21    11    12   ar
    22    12    13   ar
    23    13    14   ar
    24    14    17    1
    25    17    18    1
    26    17    19    1
    27    17    20    1
    28    14    15   ar
    29    15    16   ar
    30     7     2   ar
    31    16    11   ar
    32    31    22   ar
    33    31    25    1
    34    26    32    1
    35     8     9    1
@<TRIPOS>MOLECULE
*****
 32 35 0 0 0
SMALL
GASTEIGER

@<TRIPOS>ATOM
      1 F          62.4748   85.4177   17.7929 F       1  UNL1       -0.2012
      2 C          63.1536   86.3037   16.7908 C.ar    1  UNL1        0.1710
      3 C          62.9696   87.7908   16.8585 C.ar    1  UNL1        0.0301
      4 C          63.6484   88.6768   15.8563 C.ar    1  UNL1        0.0037
      5 C          64.5111   88.0757   14.7866 C.ar    1  UNL1        0.0965
      6 N          64.6951   86.5886   14.7189 N.ar    1  UNL1       -0.2274
      7 C          64.0163   85.7026   15.7210 C.ar    1  UNL1        0.1564
      8 N          64.2003   84.2154   15.6534 N.pl3   1  UNL1       -0.3126
      9 H          64.8665   83.7752   16.2291 H       1  UNL1        0.1486
     10 C          63.3690   83.3991   14.7086 C.3     1  UNL1        0.1170
     11 C          63.2731   83.7907   13.2637 C.ar    1  UNL1        0.0166
     12 C          64.1719   83.1457   12.2507 C.ar    1  UNL1        0.0004
     13 C          64.0761   83.5372   10.8059 C.ar    1  UNL1        0.0228
     14 C          63.0815   84.5737   10.3741 C.ar    1  UNL1        0.1526
     15 N          62.1827   85.2187   11.3871 N.ar    1  UNL1       -0.2401
     16 C          62.2786   84.8272   12.8320 C.ar    1  UNL1        0.0961
     17 C          62.9856   84.9653    8.9293 C.3     1  UNL1        0.4348
     18 F          62.8897   85.3569    7.4845 F       1  UNL1       -0.1644
     19 F          62.3616   86.2709    9.3246 F       1  UNL1       -0.1644
     20 F          63.6096   83.6598    8.5340 F       1  UNL1       -0.1644
     21 C          63.4644   90.1640   15.9240 C.3     1  UNL1        0.0559
     22 C          64.3168   91.0643   15.0797 C.ar    1  UNL1        0.0043
     23 C          65.4244   91.9474   15.5731 C.ar    1  UNL1        0.0966
     24 N          66.0034   92.6684   14.3921 N.ar    1  UNL1       -0.2273
     25 C          65.2536   92.2310   13.1687 C.ar    1  UNL1        0.1403
     26 N          65.3854   92.6074   11.7227 N.ar    1  UNL1       -0.3367
     27 C          64.4748   91.9924   10.7017 C.ar    1  UNL1        0.0850
     28 C          63.4325   91.0010   11.1267 C.ar    1  UNL1        0.0747
     29 CL         62.5219   90.3860   10.1056 Cl      1  UNL1       -0.0807
     30 C          63.3007   90.6246   12.5727 C.ar    1  UNL1        0.0156
     31 C          64.2113   91.2396   13.5937 C.ar    1  UNL1        0.0327
     32 H          66.0696   93.2581   11.4438 H       1  UNL1        0.1674
@<TRIPOS>BOND
     1     1     2    1
     2     2     3   ar
     3     3     4   ar
     4     4    21    1
     5    21    22    1
     6    22    23   ar
     7    23    24   ar
     8    24    25   ar
     9    25    26   ar
    10    26    27   ar
    11    27    28   ar
    12    28    29    1
    13    28    30   ar
    14    30    31   ar
    15     4     5   ar
    16     5     6   ar
    17     6     7   ar
    18     7     8    1
    19     8    10    1
    20    10    11    1
    21    11    12   ar
    22    12    13   ar
    23    13    14   ar
    24    14    17    1
    25    17    18    1
    26    17    19    1
    27    17    20    1
    28    14    15   ar
    29    15    16   ar
    30     7     2   ar
    31    16    11   ar
    32    31    22   ar
    33    31    25    1
    34    26    32    1
    35     8     9    1
@<TRIPOS>MOLECULE
*****
 32 35 0 0 0
SMALL
GASTEIGER

@<TRIPOS>ATOM
      1 F          63.8675   89.1017   13.4031 F       1  UNL1       -0.2012
      2 C          63.0958   88.8021   12.1521 C.ar    1  UNL1        0.1710
      3 C          62.8033   87.3804   11.7738 C.ar    1  UNL1        0.0301
      4 C          62.0317   87.0809   10.5229 C.ar    1  UNL1        0.0037
      5 C          61.5526   88.2030    9.6504 C.ar    1  UNL1        0.0965
      6 N          61.8450   89.6247   10.0287 N.ar    1  UNL1       -0.2274
      7 C          62.6167   89.9243   11.2796 C.ar    1  UNL1        0.1564
      8 N          62.9092   91.3459   11.6581 N.pl3   1  UNL1       -0.3126
      9 H          62.2232   91.8851   12.1141 H       1  UNL1        0.1486
     10 C          64.2470   91.9462   11.3417 C.3     1  UNL1        0.1170
     11 C          65.2892   92.0633   12.4142 C.ar    1  UNL1        0.0166
     12 C          64.9794   91.6179   13.8127 C.ar    1  UNL1        0.0004
     13 C          66.0215   91.7349   14.8852 C.ar    1  UNL1        0.0228
     14 C          67.3733   92.2974   14.5593 C.ar    1  UNL1        0.1526
     15 N          67.6831   92.7428   13.1609 N.ar    1  UNL1       -0.2401
     16 C          66.6409   92.6257   12.0883 C.ar    1  UNL1        0.0961
     17 C          68.4154   92.4145   15.6318 C.3     1  UNL1        0.4348
     18 F          69.4575   92.5316   16.7044 F       1  UNL1       -0.1644
     19 F          67.3398   92.4088   16.6774 F       1  UNL1       -0.1644
     20 F          69.4909   92.4202   14.5862 F       1  UNL1       -0.1644
     21 C          61.7391   85.6591   10.1445 C.3     1  UNL1        0.0559
     22 C          62.7531   84.5873   10.4146 C.ar    1  UNL1        0.0043
     23 C          63.6441   83.9396    9.3965 C.ar    1  UNL1        0.0966
     24 N          64.4958   82.9270   10.1030 N.ar    1  UNL1       -0.2273
     25 C          64.1311   82.9488   11.5579 C.ar    1  UNL1        0.1403
     26 N          64.6406   82.1668   12.7321 N.ar    1  UNL1       -0.3367
     27 C          64.0731   82.4110   14.0990 C.ar    1  UNL1        0.0850
     28 C          62.9961   83.4371   14.2915 C.ar    1  UNL1        0.0747
     29 CL         62.4285   83.6812   15.6585 Cl      1  UNL1       -0.0807
     30 C          62.4866   84.2190   13.1173 C.ar    1  UNL1        0.0156
     31 C          63.0541   83.9749   11.7505 C.ar    1  UNL1        0.0327
     32 H          65.3475   81.4933   12.6057 H       1  UNL1        0.1674
@<TRIPOS>BOND
     1     1     2    1
     2     2     3   ar
     3     3     4   ar
     4     4    21    1
     5    21    22    1
     6    22    23   ar
     7    23    24   ar
     8    24    25   ar
     9    25    26   ar
    10    26    27   ar
    11    27    28   ar
    12    28    29    1
    13    28    30   ar
    14    30    31   ar
    15     4     5   ar
    16     5     6   ar
    17     6     7   ar
    18     7     8    1
    19     8    10    1
    20    10    11    1
    21    11    12   ar
    22    12    13   ar
    23    13    14   ar
    24    14    17    1
    25    17    18    1
    26    17    19    1
    27    17    20    1
    28    14    15   ar
    29    15    16   ar
    30     7     2   ar
    31    16    11   ar
    32    31    22   ar
    33    31    25    1
    34    26    32    1
    35     8     9    1
@<TRIPOS>MOLECULE
*****
 32 35 0 0 0
SMALL
GASTEIGER

@<TRIPOS>ATOM
      1 F          61.1680   89.5838    8.8905 F       1  UNL1       -0.2012
      2 C          61.9968   89.9914   10.0724 C.ar    1  UNL1        0.1710
      3 C          62.9675   91.1286    9.9513 C.ar    1  UNL1        0.0301
      4 C          63.7962   91.5362   11.1333 C.ar    1  UNL1        0.0037
      5 C          63.6543   90.8068   12.4362 C.ar    1  UNL1        0.0965
      6 N          62.6836   89.6697   12.5573 N.ar    1  UNL1       -0.2274
      7 C          61.8548   89.2620   11.3754 C.ar    1  UNL1        0.1564
      8 N          60.8841   88.1249   11.4964 N.pl3   1  UNL1       -0.3126
      9 H          59.9380   88.3049   11.7005 H       1  UNL1        0.1486
     10 C          61.3550   86.7134   11.3065 C.3     1  UNL1        0.1170
     11 C          61.4870   86.1463    9.9240 C.ar    1  UNL1        0.0166
     12 C          62.7442   85.4332    9.5230 C.ar    1  UNL1        0.0004
     13 C          62.8764   84.8661    8.1406 C.ar    1  UNL1        0.0228
     14 C          61.7514   85.0122    7.1593 C.ar    1  UNL1        0.1526
     15 N          60.4942   85.7253    7.5604 N.ar    1  UNL1       -0.2401
     16 C          60.3620   86.2925    8.9428 C.ar    1  UNL1        0.0961
     17 C          61.8835   84.4451    5.7770 C.3     1  UNL1        0.4348
     18 F          62.0157   83.8781    4.3946 F       1  UNL1       -0.1644
     19 F          63.3335   84.8288    5.7582 F       1  UNL1       -0.1644
     20 F          60.4335   84.0614    5.7957 F       1  UNL1       -0.1644
     21 C          64.7670   92.6734   11.0122 C.3     1  UNL1        0.0559
     22 C          66.2231   92.4498   11.2946 C.ar    1  UNL1        0.0043
     23 C          67.2981   92.2410   10.2695 C.ar    1  UNL1        0.0966
     24 N          68.5992   92.0578   10.9930 N.ar    1  UNL1       -0.2273
     25 C          68.3284   92.1534   12.4653 C.ar    1  UNL1        0.1403
     26 N          69.2292   92.0512   13.6603 N.ar    1  UNL1       -0.3367
     27 C          68.6615   92.1912   15.0416 C.ar    1  UNL1        0.0850
     28 C          67.1930   92.4334   15.2279 C.ar    1  UNL1        0.0747
     29 CL         66.6253   92.5734   16.6094 Cl      1  UNL1       -0.0807
     30 C          66.2921   92.5356   14.0330 C.ar    1  UNL1        0.0156
     31 C          66.8598   92.3956   12.6517 C.ar    1  UNL1        0.0327
     32 H          70.1931   91.8922   13.5379 H       1  UNL1        0.1674
@<TRIPOS>BOND
     1     1     2    1
     2     2     3   ar
     3     3     4   ar
     4     4    21    1
     5    21    22    1
     6    22    23   ar
     7    23    24   ar
     8    24    25   ar
     9    25    26   ar
    10    26    27   ar
    11    27    28   ar
    12    28    29    1
    13    28    30   ar
    14    30    31   ar
    15     4     5   ar
    16     5     6   ar
    17     6     7   ar
    18     7     8    1
    19     8    10    1
    20    10    11    1
    21    11    12   ar
    22    12    13   ar
    23    13    14   ar
    24    14    17    1
    25    17    18    1
    26    17    19    1
    27    17    20    1
    28    14    15   ar
    29    15    16   ar
    30     7     2   ar
    31    16    11   ar
    32    31    22   ar
    33    31    25    1
    34    26    32    1
    35     8     9    1
@<TRIPOS>MOLECULE
*****
 32 35 0 0 0
SMALL
GASTEIGER

@<TRIPOS>ATOM
      1 F          62.4802   86.0106   18.1725 F       1  UNL1       -0.2012
      2 C          63.0414   86.6819   16.9542 C.ar    1  UNL1        0.1710
      3 C          63.0488   88.1788   16.8591 C.ar    1  UNL1        0.0301
      4 C          63.6100   88.8502   15.6408 C.ar    1  UNL1        0.0037
      5 C          64.1639   88.0246   14.5176 C.ar    1  UNL1        0.0965
      6 N          64.1566   86.5277   14.6127 N.ar    1  UNL1       -0.2274
      7 C          63.5953   85.8563   15.8310 C.ar    1  UNL1        0.1564
      8 N          63.5879   84.3594   15.9261 N.pl3   1  UNL1       -0.3126
      9 H          64.3547   83.8876   16.3244 H       1  UNL1        0.1486
     10 C          62.4122   83.5811   15.4142 C.3     1  UNL1        0.1170
     11 C          62.5637   82.6972   14.2118 C.ar    1  UNL1        0.0166
     12 C          62.9614   83.2884   12.8918 C.ar    1  UNL1        0.0004
     13 C          63.1130   82.4046   11.6894 C.ar    1  UNL1        0.0228
     14 C          62.8669   80.9296   11.8069 C.ar    1  UNL1        0.1526
     15 N          62.4692   80.3384   13.1269 N.ar    1  UNL1       -0.2401
     16 C          62.3177   81.2223   14.3294 C.ar    1  UNL1        0.0961
     17 C          63.0184   80.0458   10.6045 C.3     1  UNL1        0.4348
     18 F          63.1699   79.1618    9.4022 F       1  UNL1       -0.1644
     19 F          62.5925   78.8618   11.4213 F       1  UNL1       -0.1644
     20 F          63.4443   81.2296    9.7878 F       1  UNL1       -0.1644
     21 C          63.6174   90.3472   15.5457 C.3     1  UNL1        0.0559
     22 C          64.3124   91.0226   14.4008 C.ar    1  UNL1        0.0043
     23 C          63.7531   91.2209   13.0231 C.ar    1  UNL1        0.0966
     24 N          64.7838   91.9390   12.2034 N.ar    1  UNL1       -0.2273
     25 C          65.9800   92.1846   13.0744 C.ar    1  UNL1        0.1403
     26 N          67.2969   92.8508   12.8064 N.ar    1  UNL1       -0.3367
     27 C          68.3225   92.9506   13.8964 C.ar    1  UNL1        0.0850
     28 C          68.0312   92.3842   15.2545 C.ar    1  UNL1        0.0747
     29 CL         69.0569   92.4841   16.3445 Cl      1  UNL1       -0.0807
     30 C          66.7143   91.7180   15.5225 C.ar    1  UNL1        0.0156
     31 C          65.6887   91.6182   14.4325 C.ar    1  UNL1        0.0327
     32 H          67.4881   93.2226   11.9151 H       1  UNL1        0.1674
@<TRIPOS>BOND
     1     1     2    1
     2     2     3   ar
     3     3     4   ar
     4     4    21    1
     5    21    22    1
     6    22    23   ar
     7    23    24   ar
     8    24    25   ar
     9    25    26   ar
    10    26    27   ar
    11    27    28   ar
    12    28    29    1
    13    28    30   ar
    14    30    31   ar
    15     4     5   ar
    16     5     6   ar
    17     6     7   ar
    18     7     8    1
    19     8    10    1
    20    10    11    1
    21    11    12   ar
    22    12    13   ar
    23    13    14   ar
    24    14    17    1
    25    17    18    1
    26    17    19    1
    27    17    20    1
    28    14    15   ar
    29    15    16   ar
    30     7     2   ar
    31    16    11   ar
    32    31    22   ar
    33    31    25    1
    34    26    32    1
    35     8     9    1
@<TRIPOS>MOLECULE
*****
 32 35 0 0 0
SMALL
GASTEIGER

@<TRIPOS>ATOM
      1 F          62.6628   86.4303   18.0886 F       1  UNL1       -0.2012
      2 C          63.1776   86.9764   16.7899 C.ar    1  UNL1        0.1710
      3 C          63.1115   88.4499   16.5171 C.ar    1  UNL1        0.0301
      4 C          63.6263   88.9959   15.2183 C.ar    1  UNL1        0.0037
      5 C          64.2072   88.0685   14.1924 C.ar    1  UNL1        0.0965
      6 N          64.2733   86.5950   14.4652 N.ar    1  UNL1       -0.2274
      7 C          63.7585   86.0490   15.7640 C.ar    1  UNL1        0.1564
      8 N          63.8246   84.5755   16.0368 N.pl3   1  UNL1       -0.3126
      9 H          64.6238   84.1890   16.4625 H       1  UNL1        0.1486
     10 C          62.6729   83.6908   15.6612 C.3     1  UNL1        0.1170
     11 C          62.7497   82.8436   14.4257 C.ar    1  UNL1        0.0166
     12 C          62.0364   81.5251   14.3750 C.ar    1  UNL1        0.0004
     13 C          62.1131   80.6779   13.1396 C.ar    1  UNL1        0.0228
     14 C          62.9031   81.1492   11.9548 C.ar    1  UNL1        0.1526
     15 N          63.6164   82.4678   12.0055 N.ar    1  UNL1       -0.2401
     16 C          63.5397   83.3150   13.2410 C.ar    1  UNL1        0.0961
     17 C          62.9799   80.3021   10.7193 C.3     1  UNL1        0.4348
     18 F          63.0567   79.4550    9.4838 F       1  UNL1       -0.1644
     19 F          63.3773   81.5065    9.9183 F       1  UNL1       -0.1644
     20 F          62.5825   79.0977   11.5203 F       1  UNL1       -0.1644
     21 C          63.5602   90.4695   14.9454 C.3     1  UNL1        0.0559
     22 C          64.5116   91.4030   15.6334 C.ar    1  UNL1        0.0043
     23 C          64.2630   92.1192   16.9277 C.ar    1  UNL1        0.0966
     24 N          65.4764   92.9431   17.2420 N.ar    1  UNL1       -0.2273
     25 C          66.4750   92.7361   16.1420 C.ar    1  UNL1        0.1403
     26 N          67.8502   93.2913   15.9172 N.ar    1  UNL1       -0.3367
     27 C          68.6290   92.8947   14.6982 C.ar    1  UNL1        0.0850
     28 C          68.0327   91.9429   13.7040 C.ar    1  UNL1        0.0747
     29 CL         68.8117   91.5463   12.4849 Cl      1  UNL1       -0.0807
     30 C          66.6576   91.3877   13.9288 C.ar    1  UNL1        0.0156
     31 C          65.8787   91.7843   15.1478 C.ar    1  UNL1        0.0327
     32 H          68.2415   93.9160   16.5697 H       1  UNL1        0.1674
@<TRIPOS>BOND
     1     1     2    1
     2     2     3   ar
     3     3     4   ar
     4     4    21    1
     5    21    22    1
     6    22    23   ar
     7    23    24   ar
     8    24    25   ar
     9    25    26   ar
    10    26    27   ar
    11    27    28   ar
    12    28    29    1
    13    28    30   ar
    14    30    31   ar
    15     4     5   ar
    16     5     6   ar
    17     6     7   ar
    18     7     8    1
    19     8    10    1
    20    10    11    1
    21    11    12   ar
    22    12    13   ar
    23    13    14   ar
    24    14    17    1
    25    17    18    1
    26    17    19    1
    27    17    20    1
    28    14    15   ar
    29    15    16   ar
    30     7     2   ar
    31    16    11   ar
    32    31    22   ar
    33    31    25    1
    34    26    32    1
    35     8     9    1
@<TRIPOS>MOLECULE
*****
 32 35 0 0 0
SMALL
GASTEIGER

@<TRIPOS>ATOM
      1 F          60.1135   87.3197   11.5770 F       1  UNL1       -0.2012
      2 C          61.1004   86.6818   10.6447 C.ar    1  UNL1        0.1710
      3 C          61.7705   85.3957   11.0276 C.ar    1  UNL1        0.0301
      4 C          62.7574   84.7578   10.0953 C.ar    1  UNL1        0.0037
      5 C          63.0741   85.4061    8.7803 C.ar    1  UNL1        0.0965
      6 N          62.4040   86.6923    8.3974 N.ar    1  UNL1       -0.2274
      7 C          61.4171   87.3301    9.3297 C.ar    1  UNL1        0.1564
      8 N          60.7469   88.6163    8.9469 N.pl3   1  UNL1       -0.3126
      9 H          60.4256   88.7489    8.0258 H       1  UNL1        0.1486
     10 C          60.5663   89.7006    9.9675 C.3     1  UNL1        0.1170
     11 C          61.7496   90.2155   10.7324 C.ar    1  UNL1        0.0166
     12 C          62.7832   91.0535   10.0400 C.ar    1  UNL1        0.0004
     13 C          63.9664   91.5684   10.8047 C.ar    1  UNL1        0.0228
     14 C          64.1161   91.2452   12.2618 C.ar    1  UNL1        0.1526
     15 N          63.0825   90.4071   12.9542 N.ar    1  UNL1       -0.2401
     16 C          61.8992   89.8922   12.1894 C.ar    1  UNL1        0.0961
     17 C          65.2993   91.7600   13.0266 C.3     1  UNL1        0.4348
     18 F          66.4825   92.2747   13.7914 F       1  UNL1       -0.1644
     19 F          65.2767   90.5321   13.8880 F       1  UNL1       -0.1644
     20 F          65.3220   92.9878   12.1652 F       1  UNL1       -0.1644
     21 C          63.4276   83.4715   10.4781 C.3     1  UNL1        0.0559
     22 C          63.1760   82.8674   11.8279 C.ar    1  UNL1        0.0043
     23 C          62.6987   81.4704   12.0935 C.ar    1  UNL1        0.0966
     24 N          62.5852   81.2940   13.5787 N.ar    1  UNL1       -0.2273
     25 C          62.9923   82.5819   14.2311 C.ar    1  UNL1        0.1403
     26 N          63.0777   82.9948   15.6706 N.ar    1  UNL1       -0.3367
     27 C          63.5283   84.3801   16.0279 C.ar    1  UNL1        0.0850
     28 C          63.8934   85.3526   14.9458 C.ar    1  UNL1        0.0747
     29 CL         64.3440   86.7380   15.3033 Cl      1  UNL1       -0.0807
     30 C          63.8080   84.9397   13.5063 C.ar    1  UNL1        0.0156
     31 C          63.3574   83.5544   13.1489 C.ar    1  UNL1        0.0327
     32 H          62.8381   82.3565   16.3808 H       1  UNL1        0.1674
@<TRIPOS>BOND
     1     1     2    1
     2     2     3   ar
     3     3     4   ar
     4     4    21    1
     5    21    22    1
     6    22    23   ar
     7    23    24   ar
     8    24    25   ar
     9    25    26   ar
    10    26    27   ar
    11    27    28   ar
    12    28    29    1
    13    28    30   ar
    14    30    31   ar
    15     4     5   ar
    16     5     6   ar
    17     6     7   ar
    18     7     8    1
    19     8    10    1
    20    10    11    1
    21    11    12   ar
    22    12    13   ar
    23    13    14   ar
    24    14    17    1
    25    17    18    1
    26    17    19    1
    27    17    20    1
    28    14    15   ar
    29    15    16   ar
    30     7     2   ar
    31    16    11   ar
    32    31    22   ar
    33    31    25    1
    34    26    32    1
    35     8     9    1
@<TRIPOS>MOLECULE
*****
 32 35 0 0 0
SMALL
GASTEIGER

@<TRIPOS>ATOM
      1 F          62.3470   84.9009   17.6070 F       1  UNL1       -0.2012
      2 C          63.1329   85.7467   16.6494 C.ar    1  UNL1        0.1710
      3 C          62.9767   87.2385   16.6642 C.ar    1  UNL1        0.0301
      4 C          63.7626   88.0843   15.7066 C.ar    1  UNL1        0.0037
      5 C          64.7045   87.4383   14.7342 C.ar    1  UNL1        0.0965
      6 N          64.8607   85.9466   14.7194 N.ar    1  UNL1       -0.2274
      7 C          64.0748   85.1008   15.6771 C.ar    1  UNL1        0.1564
      8 N          64.2309   83.6090   15.6623 N.pl3   1  UNL1       -0.3126
      9 H          64.7687   83.1635   16.3562 H       1  UNL1        0.1486
     10 C          63.5676   82.7961   14.5904 C.3     1  UNL1        0.1170
     11 C          63.3944   83.3678   13.2143 C.ar    1  UNL1        0.0166
     12 C          64.1886   82.8160   12.0677 C.ar    1  UNL1        0.0004
     13 C          64.0156   83.3876   10.6917 C.ar    1  UNL1        0.0228
     14 C          63.0483   84.5109   10.4624 C.ar    1  UNL1        0.1526
     15 N          62.2542   85.0627   11.6091 N.ar    1  UNL1       -0.2401
     16 C          62.4272   84.4910   12.9851 C.ar    1  UNL1        0.0961
     17 C          62.8752   85.0825    9.0865 C.3     1  UNL1        0.4348
     18 F          62.7022   85.6541    7.7105 F       1  UNL1       -0.1644
     19 F          63.6230   83.9176    8.5085 F       1  UNL1       -0.1644
     20 F          62.1275   86.2474    9.6644 F       1  UNL1       -0.1644
     21 C          63.6065   89.5762   15.7213 C.3     1  UNL1        0.0559
     22 C          63.8532   90.3684   14.4718 C.ar    1  UNL1        0.0043
     23 C          63.0970   90.2400   13.1827 C.ar    1  UNL1        0.0966
     24 N          63.6759   91.2205   12.2062 N.ar    1  UNL1       -0.2273
     25 C          64.7898   91.9548   12.8917 C.ar    1  UNL1        0.1403
     26 N          65.7184   93.0350   12.4218 N.ar    1  UNL1       -0.3367
     27 C          66.7566   93.5885   13.3521 C.ar    1  UNL1        0.0850
     28 C          66.8662   93.0619   14.7524 C.ar    1  UNL1        0.0747
     29 CL         67.9045   93.6156   15.6828 Cl      1  UNL1       -0.0807
     30 C          65.9376   91.9818   15.2223 C.ar    1  UNL1        0.0156
     31 C          64.8993   91.4282   14.2919 C.ar    1  UNL1        0.0327
     32 H          65.6465   93.3806   11.5027 H       1  UNL1        0.1674
@<TRIPOS>BOND
     1     1     2    1
     2     2     3   ar
     3     3     4   ar
     4     4    21    1
     5    21    22    1
     6    22    23   ar
     7    23    24   ar
     8    24    25   ar
     9    25    26   ar
    10    26    27   ar
    11    27    28   ar
    12    28    29    1
    13    28    30   ar
    14    30    31   ar
    15     4     5   ar
    16     5     6   ar
    17     6     7   ar
    18     7     8    1
    19     8    10    1
    20    10    11    1
    21    11    12   ar
    22    12    13   ar
    23    13    14   ar
    24    14    17    1
    25    17    18    1
    26    17    19    1
    27    17    20    1
    28    14    15   ar
    29    15    16   ar
    30     7     2   ar
    31    16    11   ar
    32    31    22   ar
    33    31    25    1
    34    26    32    1
    35     8     9    1
