@<TRIPOS>MOLECULE
*****
 22 25 0 0 0
SMALL
GASTEIGER

@<TRIPOS>ATOM
      1 C          61.5958   84.8466    6.5395 C.ar    1  UNL1       -0.0003
      2 C          62.8625   84.6626    7.3214 C.ar    1  UNL1       -0.0000
      3 C          63.0180   85.3169    8.6622 C.ar    1  UNL1       -0.0006
      4 C          61.9068   86.1553    9.2210 C.ar    1  UNL1       -0.0078
      5 C          60.6401   86.3393    8.4391 C.ar    1  UNL1       -0.0184
      6 C          60.4846   85.6849    7.0983 C.ar    1  UNL1       -0.0040
      7 C          59.7238   87.2158    9.2405 C.3     1  UNL1        0.0480
      8 C          60.4243   87.5735   10.5177 C.2     1  UNL1       -0.0420
      9 C          61.7735   86.9180   10.5057 C.2     1  UNL1       -0.0240
     10 C          59.8725   88.4353   11.6145 C.3     1  UNL1        0.0394
     11 C          60.1978   89.8991   11.6537 C.3     1  UNL1        0.0765
     12 N          61.5843   90.3683   11.3258 N.3     1  UNL1       -0.2723
     13 C          62.3239   90.6898   10.0612 C.3     1  UNL1        0.0735
     14 C          63.5451   91.0318   10.8622 C.3     1  UNL1        0.0346
     15 C          62.8055   90.7102   12.1270 C.3     1  UNL1        0.0735
     16 C          62.8077   87.0093   11.5883 C.3     1  UNL1        0.0730
     17 C          62.9997   85.8662   12.5404 C.ar    1  UNL1        0.0825
     18 C          62.5403   84.4895   12.1618 C.ar    1  UNL1        0.1139
     19 N          62.7323   83.3464   13.1139 N.ar    1  UNL1       -0.2394
     20 C          63.3838   83.5801   14.4447 C.ar    1  UNL1        0.1195
     21 C          63.8432   84.9569   14.8233 C.ar    1  UNL1        0.1191
     22 N          63.6512   86.1000   13.8712 N.ar    1  UNL1       -0.2446
@<TRIPOS>BOND
     1     1     2   ar
     2     2     3   ar
     3     3     4   ar
     4     4     5   ar
     5     5     6   ar
     6     5     7    1
     7     7     8    1
     8     8    10    1
     9    10    11    1
    10    11    12    1
    11    12    13    1
    12    13    14    1
    13    14    15    1
    14     8     9    2
    15     9    16    1
    16    16    17    1
    17    17    18   ar
    18    18    19   ar
    19    19    20   ar
    20    20    21   ar
    21    21    22   ar
    22     6     1   ar
    23    15    12    1
    24    22    17   ar
    25     9     4    1
@<TRIPOS>MOLECULE
*****
 22 25 0 0 0
SMALL
GASTEIGER

@<TRIPOS>ATOM
      1 C          60.4128   86.9721    8.6260 C.ar    1  UNL1       -0.0003
      2 C          60.2133   88.4576    8.5690 C.ar    1  UNL1       -0.0000
      3 C          60.8747   89.3427    9.5834 C.ar    1  UNL1       -0.0006
      4 C          61.7357   88.7423   10.6549 C.ar    1  UNL1       -0.0078
      5 C          61.9352   87.2568   10.7120 C.ar    1  UNL1       -0.0184
      6 C          61.2738   86.3717    9.6975 C.ar    1  UNL1       -0.0040
      7 C          62.8329   86.9539   11.8751 C.3     1  UNL1        0.0480
      8 C          63.1880   88.2524   12.5368 C.2     1  UNL1       -0.0420
      9 C          62.5099   89.3576   11.7827 C.2     1  UNL1       -0.0240
     10 C          64.0670   88.4167   13.7412 C.3     1  UNL1        0.0394
     11 C          64.3498   87.2414   14.6293 C.3     1  UNL1        0.0765
     12 N          63.6350   87.1032   15.9407 N.3     1  UNL1       -0.2723
     13 C          63.0621   88.0612   16.9425 C.3     1  UNL1        0.0735
     14 C          62.6241   86.9076   17.7953 C.3     1  UNL1        0.0346
     15 C          63.1970   85.9494   16.7934 C.3     1  UNL1        0.0735
     16 C          62.5918   90.8213   12.1006 C.3     1  UNL1        0.0730
     17 C          63.9139   91.5276   12.0470 C.ar    1  UNL1        0.0825
     18 C          64.5200   91.8854   10.7224 C.ar    1  UNL1        0.1139
     19 N          65.8422   92.5918   10.6688 N.ar    1  UNL1       -0.2394
     20 C          66.5583   92.9404   11.9399 C.ar    1  UNL1        0.1195
     21 C          65.9522   92.5827   13.2645 C.ar    1  UNL1        0.1191
     22 N          64.6301   91.8763   13.3181 N.ar    1  UNL1       -0.2446
@<TRIPOS>BOND
     1     1     2   ar
     2     2     3   ar
     3     3     4   ar
     4     4     5   ar
     5     5     6   ar
     6     5     7    1
     7     7     8    1
     8     8    10    1
     9    10    11    1
    10    11    12    1
    11    12    13    1
    12    13    14    1
    13    14    15    1
    14     8     9    2
    15     9    16    1
    16    16    17    1
    17    17    18   ar
    18    18    19   ar
    19    19    20   ar
    20    20    21   ar
    21    21    22   ar
    22     6     1   ar
    23    15    12    1
    24    22    17   ar
    25     9     4    1
@<TRIPOS>MOLECULE
*****
 22 25 0 0 0
SMALL
GASTEIGER

@<TRIPOS>ATOM
      1 C          63.8885   82.2496   13.7746 C.ar    1  UNL1       -0.0003
      2 C          63.0771   83.3580   14.3771 C.ar    1  UNL1       -0.0000
      3 C          62.5490   84.4595   13.5067 C.ar    1  UNL1       -0.0006
      4 C          62.8323   84.4527   12.0338 C.ar    1  UNL1       -0.0078
      5 C          63.6437   83.3443   11.4312 C.ar    1  UNL1       -0.0184
      6 C          64.1718   82.2428   12.3016 C.ar    1  UNL1       -0.0040
      7 C          63.7600   83.6029    9.9582 C.3     1  UNL1        0.0480
      8 C          63.0205   84.8711    9.6504 C.2     1  UNL1       -0.0420
      9 C          62.4472   85.3963   10.9332 C.2     1  UNL1       -0.0240
     10 C          62.8792   85.5032    8.2974 C.3     1  UNL1        0.0394
     11 C          61.5906   85.3744    7.5404 C.3     1  UNL1        0.0765
     12 N          60.5149   86.4060    7.7097 N.3     1  UNL1       -0.2723
     13 C          59.0162   86.3771    7.7599 C.3     1  UNL1        0.0735
     14 C          58.9938   87.8649    7.9491 C.3     1  UNL1        0.0346
     15 C          60.4926   87.8939    7.8989 C.3     1  UNL1        0.0735
     16 C          61.6318   86.6458   11.0882 C.3     1  UNL1        0.0730
     17 C          62.2898   87.9216   11.5234 C.ar    1  UNL1        0.0825
     18 C          62.0469   89.1893   10.7593 C.ar    1  UNL1        0.1139
     19 N          62.7049   90.4651   11.1945 N.ar    1  UNL1       -0.2394
     20 C          63.6058   90.4732   12.3937 C.ar    1  UNL1        0.1195
     21 C          63.8488   89.2055   13.1577 C.ar    1  UNL1        0.1191
     22 N          63.1908   87.9297   12.7226 N.ar    1  UNL1       -0.2446
@<TRIPOS>BOND
     1     1     2   ar
     2     2     3   ar
     3     3     4   ar
     4     4     5   ar
     5     5     6   ar
     6     5     7    1
     7     7     8    1
     8     8    10    1
     9    10    11    1
    10    11    12    1
    11    12    13    1
    12    13    14    1
    13    14    15    1
    14     8     9    2
    15     9    16    1
    16    16    17    1
    17    17    18   ar
    18    18    19   ar
    19    19    20   ar
    20    20    21   ar
    21    21    22   ar
    22     6     1   ar
    23    15    12    1
    24    22    17   ar
    25     9     4    1
@<TRIPOS>MOLECULE
*****
 22 25 0 0 0
SMALL
GASTEIGER

@<TRIPOS>ATOM
      1 C          64.1615   85.4437   14.2097 C.ar    1  UNL1       -0.0003
      2 C          64.6106   86.6401   14.9951 C.ar    1  UNL1       -0.0000
      3 C          64.3260   88.0218   14.4856 C.ar    1  UNL1       -0.0006
      4 C          63.5922   88.2073   13.1906 C.ar    1  UNL1       -0.0078
      5 C          63.1430   87.0109   12.4051 C.ar    1  UNL1       -0.0184
      6 C          63.4277   85.6292   12.9147 C.ar    1  UNL1       -0.0040
      7 C          62.4450   87.5018   11.1714 C.3     1  UNL1        0.0480
      8 C          62.4628   89.0015   11.1945 C.2     1  UNL1       -0.0420
      9 C          63.1718   89.4375   12.4424 C.2     1  UNL1       -0.0240
     10 C          61.8748   89.9063   10.1526 C.3     1  UNL1        0.0394
     11 C          60.4149   89.8175    9.8195 C.3     1  UNL1        0.0765
     12 N          59.9192   88.7392    8.9022 N.3     1  UNL1       -0.2723
     13 C          59.4261   88.6949    7.4864 C.3     1  UNL1        0.0735
     14 C          59.2181   87.2142    7.6050 C.3     1  UNL1        0.0346
     15 C          59.7112   87.2584    9.0210 C.3     1  UNL1        0.0735
     16 C          63.4173   90.8549   12.8674 C.3     1  UNL1        0.0730
     17 C          64.6078   91.6003   12.3410 C.ar    1  UNL1        0.0825
     18 C          65.7698   91.8912   13.2437 C.ar    1  UNL1        0.1139
     19 N          66.9603   92.6366   12.7172 N.ar    1  UNL1       -0.2394
     20 C          66.9887   93.0911   11.2880 C.ar    1  UNL1        0.1195
     21 C          65.8266   92.8002   10.3853 C.ar    1  UNL1        0.1191
     22 N          64.6362   92.0548   10.9118 N.ar    1  UNL1       -0.2446
@<TRIPOS>BOND
     1     1     2   ar
     2     2     3   ar
     3     3     4   ar
     4     4     5   ar
     5     5     6   ar
     6     5     7    1
     7     7     8    1
     8     8    10    1
     9    10    11    1
    10    11    12    1
    11    12    13    1
    12    13    14    1
    13    14    15    1
    14     8     9    2
    15     9    16    1
    16    16    17    1
    17    17    18   ar
    18    18    19   ar
    19    19    20   ar
    20    20    21   ar
    21    21    22   ar
    22     6     1   ar
    23    15    12    1
    24    22    17   ar
    25     9     4    1
@<TRIPOS>MOLECULE
*****
 22 25 0 0 0
SMALL
GASTEIGER

@<TRIPOS>ATOM
      1 C          61.8217   88.9798   10.3131 C.ar    1  UNL1       -0.0003
      2 C          62.2265   90.2529    9.6310 C.ar    1  UNL1       -0.0000
      3 C          63.1692   91.2011   10.3109 C.ar    1  UNL1       -0.0006
      4 C          63.7071   90.8763   11.6729 C.ar    1  UNL1       -0.0078
      5 C          63.3022   89.6032   12.3550 C.ar    1  UNL1       -0.0184
      6 C          62.3596   88.6550   11.6751 C.ar    1  UNL1       -0.0040
      7 C          63.9901   89.5520   13.6871 C.3     1  UNL1        0.0480
      8 C          64.8200   90.7935   13.8282 C.2     1  UNL1       -0.0420
      9 C          64.6451   91.6119   12.5833 C.2     1  UNL1       -0.0240
     10 C          65.6748   91.1534   15.0071 C.3     1  UNL1        0.0394
     11 C          67.1672   91.2022   14.8643 C.3     1  UNL1        0.0765
     12 N          67.9285   92.3994   15.3513 N.3     1  UNL1       -0.2723
     13 C          67.7502   93.8849   15.2449 C.3     1  UNL1        0.0735
     14 C          69.0051   94.0925   16.0400 C.3     1  UNL1        0.0346
     15 C          69.1833   92.6069   16.1465 C.3     1  UNL1        0.0735
     16 C          65.2942   92.9339   12.2988 C.3     1  UNL1        0.0730
     17 C          66.3471   93.0391   11.2357 C.ar    1  UNL1        0.0825
     18 C          67.5385   92.1282   11.2672 C.ar    1  UNL1        0.1139
     19 N          68.5914   92.2334   10.2040 N.ar    1  UNL1       -0.2394
     20 C          68.4530   93.2496    9.1094 C.ar    1  UNL1        0.1195
     21 C          67.2617   94.1605    9.0778 C.ar    1  UNL1        0.1191
     22 N          66.2087   94.0552   10.1410 N.ar    1  UNL1       -0.2446
@<TRIPOS>BOND
     1     1     2   ar
     2     2     3   ar
     3     3     4   ar
     4     4     5   ar
     5     5     6   ar
     6     5     7    1
     7     7     8    1
     8     8    10    1
     9    10    11    1
    10    11    12    1
    11    12    13    1
    12    13    14    1
    13    14    15    1
    14     8     9    2
    15     9    16    1
    16    16    17    1
    17    17    18   ar
    18    18    19   ar
    19    19    20   ar
    20    20    21   ar
    21    21    22   ar
    22     6     1   ar
    23    15    12    1
    24    22    17   ar
    25     9     4    1
@<TRIPOS>MOLECULE
*****
 22 25 0 0 0
SMALL
GASTEIGER

@<TRIPOS>ATOM
      1 C          61.5178   87.3894    9.7759 C.ar    1  UNL1       -0.0003
      2 C          61.8735   86.1366   10.5200 C.ar    1  UNL1       -0.0000
      3 C          62.6568   86.2192   11.7966 C.ar    1  UNL1       -0.0006
      4 C          63.0843   87.5548   12.3291 C.ar    1  UNL1       -0.0078
      5 C          62.7285   88.8076   11.5849 C.ar    1  UNL1       -0.0184
      6 C          61.9453   88.7249   10.3083 C.ar    1  UNL1       -0.0040
      7 C          63.2834   89.9736   12.3483 C.3     1  UNL1        0.0480
      8 C          63.9821   89.4413   13.5643 C.2     1  UNL1       -0.0420
      9 C          63.8590   87.9464   13.5523 C.2     1  UNL1       -0.0240
     10 C          64.6811   90.2601   14.6088 C.3     1  UNL1        0.0394
     11 C          65.2652   91.5941   14.2492 C.3     1  UNL1        0.0765
     12 N          66.5668   92.0305   14.8536 N.3     1  UNL1       -0.2723
     13 C          66.9680   92.7216   16.1229 C.3     1  UNL1        0.0735
     14 C          68.4076   92.6475   15.7082 C.3     1  UNL1        0.0346
     15 C          68.0065   91.9563   14.4389 C.3     1  UNL1        0.0735
     16 C          64.4133   87.0078   14.5828 C.3     1  UNL1        0.0730
     17 C          63.9530   85.5807   14.6224 C.ar    1  UNL1        0.0825
     18 C          64.7800   84.5078   13.9782 C.ar    1  UNL1        0.1139
     19 N          64.3197   83.0807   14.0178 N.ar    1  UNL1       -0.2394
     20 C          63.0324   82.7265   14.7015 C.ar    1  UNL1        0.1195
     21 C          62.2055   83.7995   15.3457 C.ar    1  UNL1        0.1191
     22 N          62.6658   85.2266   15.3061 N.ar    1  UNL1       -0.2446
@<TRIPOS>BOND
     1     1     2   ar
     2     2     3   ar
     3     3     4   ar
     4     4     5   ar
     5     5     6   ar
     6     5     7    1
     7     7     8    1
     8     8    10    1
     9    10    11    1
    10    11    12    1
    11    12    13    1
    12    13    14    1
    13    14    15    1
    14     8     9    2
    15     9    16    1
    16    16    17    1
    17    17    18   ar
    18    18    19   ar
    19    19    20   ar
    20    20    21   ar
    21    21    22   ar
    22     6     1   ar
    23    15    12    1
    24    22    17   ar
    25     9     4    1
@<TRIPOS>MOLECULE
*****
 22 25 0 0 0
SMALL
GASTEIGER

@<TRIPOS>ATOM
      1 C          59.1793   88.4980    7.2421 C.ar    1  UNL1       -0.0003
      2 C          58.9938   87.1052    7.7673 C.ar    1  UNL1       -0.0000
      3 C          59.7328   86.6620    8.9951 C.ar    1  UNL1       -0.0006
      4 C          60.6573   87.6115    9.6977 C.ar    1  UNL1       -0.0078
      5 C          60.8428   89.0043    9.1725 C.ar    1  UNL1       -0.0184
      6 C          60.1038   89.4475    7.9448 C.ar    1  UNL1       -0.0040
      7 C          61.8135   89.7128   10.0702 C.3     1  UNL1        0.0480
      8 C          62.2280   88.7578   11.1502 C.2     1  UNL1       -0.0420
      9 C          61.5134   87.4592   10.9199 C.2     1  UNL1       -0.0240
     10 C          63.1884   89.0502   12.2648 C.3     1  UNL1        0.0394
     11 C          63.2667   90.4314   12.8444 C.3     1  UNL1        0.0765
     12 N          64.3015   91.3963   12.3464 N.3     1  UNL1       -0.2723
     13 C          64.6158   92.0239   11.0209 C.3     1  UNL1        0.0735
     14 C          65.7651   92.7608   11.6423 C.3     1  UNL1        0.0346
     15 C          65.4508   92.1332   12.9679 C.3     1  UNL1        0.0735
     16 C          61.6338   86.2250   11.7638 C.3     1  UNL1        0.0730
     17 C          62.5992   85.1438   11.3779 C.ar    1  UNL1        0.0825
     18 C          63.3067   84.3558   12.4402 C.ar    1  UNL1        0.1139
     19 N          64.2721   83.2746   12.0542 N.ar    1  UNL1       -0.2394
     20 C          64.5301   82.9814   10.6060 C.ar    1  UNL1        0.1195
     21 C          63.8227   83.7694    9.5437 C.ar    1  UNL1        0.1191
     22 N          62.8572   84.8506    9.9296 N.ar    1  UNL1       -0.2446
@<TRIPOS>BOND
     1     1     2   ar
     2     2     3   ar
     3     3     4   ar
     4     4     5   ar
     5     5     6   ar
     6     5     7    1
     7     7     8    1
     8     8    10    1
     9    10    11    1
    10    11    12    1
    11    12    13    1
    12    13    14    1
    13    14    15    1
    14     8     9    2
    15     9    16    1
    16    16    17    1
    17    17    18   ar
    18    18    19   ar
    19    19    20   ar
    20    20    21   ar
    21    21    22   ar
    22     6     1   ar
    23    15    12    1
    24    22    17   ar
    25     9     4    1
@<TRIPOS>MOLECULE
*****
 22 25 0 0 0
SMALL
GASTEIGER

@<TRIPOS>ATOM
      1 C          67.5721   93.5133   14.6437 C.ar    1  UNL1       -0.0003
      2 C          67.1494   92.9636   15.9738 C.ar    1  UNL1       -0.0000
      3 C          65.9896   92.0163   16.0596 C.ar    1  UNL1       -0.0006
      4 C          65.2524   91.6187   14.8154 C.ar    1  UNL1       -0.0078
      5 C          65.6750   92.1683   13.4852 C.ar    1  UNL1       -0.0184
      6 C          66.8348   93.1156   13.3994 C.ar    1  UNL1       -0.0040
      7 C          64.7639   91.5996   12.4380 C.3     1  UNL1        0.0480
      8 C          63.7782   90.6986   13.1210 C.2     1  UNL1       -0.0420
      9 C          64.0801   90.7103   14.5902 C.2     1  UNL1       -0.0240
     10 C          62.6829   89.9220   12.4521 C.3     1  UNL1        0.0394
     11 C          62.2158   90.3128   11.0813 C.3     1  UNL1        0.0765
     12 N          61.4969   89.3160   10.2214 N.3     1  UNL1       -0.2723
     13 C          61.7613   87.9054    9.7856 C.3     1  UNL1        0.0735
     14 C          60.4803   87.9063    9.0052 C.3     1  UNL1        0.0346
     15 C          60.2159   89.3171    9.4410 C.3     1  UNL1        0.0735
     16 C          63.3397   89.9476   15.6486 C.3     1  UNL1        0.0730
     17 C          63.5275   88.4648   15.7744 C.ar    1  UNL1        0.0825
     18 C          64.3573   87.7257   14.7667 C.ar    1  UNL1        0.1139
     19 N          64.5451   86.2429   14.8925 N.ar    1  UNL1       -0.2394
     20 C          63.9032   85.4990   16.0259 C.ar    1  UNL1        0.1195
     21 C          63.0734   86.2380   17.0335 C.ar    1  UNL1        0.1191
     22 N          62.8856   87.7209   16.9078 N.ar    1  UNL1       -0.2446
@<TRIPOS>BOND
     1     1     2   ar
     2     2     3   ar
     3     3     4   ar
     4     4     5   ar
     5     5     6   ar
     6     5     7    1
     7     7     8    1
     8     8    10    1
     9    10    11    1
    10    11    12    1
    11    12    13    1
    12    13    14    1
    13    14    15    1
    14     8     9    2
    15     9    16    1
    16    16    17    1
    17    17    18   ar
    18    18    19   ar
    19    19    20   ar
    20    20    21   ar
    21    21    22   ar
    22     6     1   ar
    23    15    12    1
    24    22    17   ar
    25     9     4    1
@<TRIPOS>MOLECULE
*****
 22 25 0 0 0
SMALL
GASTEIGER

@<TRIPOS>ATOM
      1 C          61.1815   86.6916    9.9897 C.ar    1  UNL1       -0.0003
      2 C          61.8892   85.8723   11.0278 C.ar    1  UNL1       -0.0000
      3 C          62.7514   86.5450   12.0546 C.ar    1  UNL1       -0.0006
      4 C          62.9058   88.0370   12.0432 C.ar    1  UNL1       -0.0078
      5 C          62.1980   88.8563   11.0051 C.ar    1  UNL1       -0.0184
      6 C          61.3359   88.1836    9.9783 C.ar    1  UNL1       -0.0040
      7 C          62.5375   90.2981   11.2417 C.3     1  UNL1        0.0480
      8 C          63.4551   90.3699   12.4261 C.2     1  UNL1       -0.0420
      9 C          63.6827   88.9724   12.9215 C.2     1  UNL1       -0.0240
     10 C          64.0420   91.6196   13.0124 C.3     1  UNL1        0.0394
     11 C          65.5085   91.8994   12.8667 C.3     1  UNL1        0.0765
     12 N          65.9805   92.9404   11.8954 N.3     1  UNL1       -0.2723
     13 C          66.4529   92.9263   10.4719 C.3     1  UNL1        0.0735
     14 C          66.6481   94.4127   10.5218 C.3     1  UNL1        0.0346
     15 C          66.1756   94.4269   11.9454 C.3     1  UNL1        0.0735
     16 C          64.5372   88.5793   14.0899 C.3     1  UNL1        0.0730
     17 C          63.9637   87.7326   15.1873 C.ar    1  UNL1        0.0825
     18 C          64.1561   86.2452   15.1653 C.ar    1  UNL1        0.1139
     19 N          63.5827   85.3984   16.2627 N.ar    1  UNL1       -0.2394
     20 C          62.8168   86.0391   17.3820 C.ar    1  UNL1        0.1195
     21 C          62.6244   87.5266   17.4040 C.ar    1  UNL1        0.1191
     22 N          63.1979   88.3733   16.3066 N.ar    1  UNL1       -0.2446
@<TRIPOS>BOND
     1     1     2   ar
     2     2     3   ar
     3     3     4   ar
     4     4     5   ar
     5     5     6   ar
     6     5     7    1
     7     7     8    1
     8     8    10    1
     9    10    11    1
    10    11    12    1
    11    12    13    1
    12    13    14    1
    13    14    15    1
    14     8     9    2
    15     9    16    1
    16    16    17    1
    17    17    18   ar
    18    18    19   ar
    19    19    20   ar
    20    20    21   ar
    21    21    22   ar
    22     6     1   ar
    23    15    12    1
    24    22    17   ar
    25     9     4    1
