@<TRIPOS>MOLECULE
*****
 30 34 0 0 0
SMALL
GASTEIGER

@<TRIPOS>ATOM
      1 C          62.8823   89.4589   12.2082 C.ar    1  UNL1        0.1171
      2 C          61.8054   89.9873   11.3075 C.ar    1  UNL1        0.0978
      3 N          61.2192   88.8285   10.5568 N.ar    1  UNL1       -0.3089
      4 C          61.9337   87.5840   10.9935 C.ar    1  UNL1        0.1521
      5 N          62.9616   87.9737   12.0142 N.ar    1  UNL1       -0.2266
      6 C          61.5560   86.2568   10.4054 C.3     1  UNL1        0.1933
      7 O          60.4638   86.1740    9.3806 O.3     1  UNL1       -0.3422
      8 C          59.7493   87.4185    8.9438 C.3     1  UNL1        0.1675
      9 C          60.1270   88.7457    9.5320 C.3     1  UNL1        0.1393
     10 C          66.7455   92.4874   14.2670 C.2     1  UNL1        0.1350
     11 C          66.9935   93.0641   15.6293 C.2     1  UNL1        0.0988
     12 C          66.0198   92.8075   16.7410 C.2     1  UNL1        0.0143
     13 C          64.7979   91.9741   16.4905 C.2     1  UNL1        0.0162
     14 C          64.5499   91.3974   15.1282 C.2     1  UNL1        0.0700
     15 N          63.4419   90.5439   14.5861 N.2     1  UNL1       -0.2477
     16 C          63.7309   90.2730   13.1394 C.2     1  UNL1        0.0965
     17 C          65.0175   90.9591   12.7873 C.2     1  UNL1        0.0077
     18 C          65.5237   91.6541   14.0164 C.3     1  UNL1        0.1210
     19 C          68.6762   91.6688   12.7333 C.3     1  UNL1        0.2520
     20 O          67.7192   92.7441   13.1553 O.2     1  UNL1       -0.4743
     21 C          68.2153   93.8975   15.8798 C.1     1  UNL1        0.1032
     22 N          69.4372   94.7308   16.1303 N.1     1  UNL1       -0.1907
     23 C          62.2706   85.0123   10.8421 C.ar    1  UNL1        0.0100
     24 C          62.0842   84.4904   12.2360 C.ar    1  UNL1       -0.0017
     25 C          62.7988   83.2460   12.6727 C.ar    1  UNL1        0.0020
     26 C          63.6998   82.5234   11.7155 C.ar    1  UNL1        0.0293
     27 C          63.8863   83.0453   10.3217 C.ar    1  UNL1        0.1359
     28 F          64.7872   82.3229    9.3645 F       1  UNL1       -0.2045
     29 C          63.1716   84.2898    9.8850 C.ar    1  UNL1        0.0043
     30 C          63.3581   84.8117    8.4911 C.3     1  UNL1        0.0331
@<TRIPOS>BOND
     1    19    20    1
     2    20    10    1
     3    10    11    2
     4    11    21    1
     5    21    22    3
     6    11    12    1
     7    12    13    2
     8    13    14    1
     9    14    15    2
    10    15    16    1
    11    16     1    1
    12     1     2   ar
    13     2     3   ar
    14     3     4   ar
    15     4     5   ar
    16     4     6    1
    17     6    23    1
    18    23    24   ar
    19    24    25   ar
    20    25    26   ar
    21    26    27   ar
    22    27    28    1
    23    27    29   ar
    24    29    30    1
    25     6     7    1
    26     7     8    1
    27     8     9    1
    28    16    17    2
    29    17    18    1
    30    18    10    1
    31    18    14    1
    32     5     1   ar
    33    29    23   ar
    34     9     3    1
@<TRIPOS>MOLECULE
*****
 30 34 0 0 0
SMALL
GASTEIGER

@<TRIPOS>ATOM
      1 C          62.7795   89.9246   10.6710 C.ar    1  UNL1        0.1171
      2 C          61.6030   90.2574    9.8020 C.ar    1  UNL1        0.0978
      3 N          60.9479   88.9705    9.3960 N.ar    1  UNL1       -0.3089
      4 C          61.7196   87.8423   10.0140 C.ar    1  UNL1        0.1521
      5 N          62.8516   88.4321   10.8020 N.ar    1  UNL1       -0.2266
      6 C          61.2918   86.4240    9.7793 C.3     1  UNL1        0.1933
      7 O          60.0923   86.1336    8.9267 O.3     1  UNL1       -0.3422
      8 C          59.3207   87.2617    8.3086 C.3     1  UNL1        0.1675
      9 C          59.7485   88.6802    8.5433 C.3     1  UNL1        0.1393
     10 C          66.0019   92.4625   14.0635 C.2     1  UNL1        0.1350
     11 C          66.8036   93.7275   13.9796 C.2     1  UNL1        0.0988
     12 C          66.7799   94.5487   12.7247 C.2     1  UNL1        0.0143
     13 C          65.9544   94.1049   11.5534 C.2     1  UNL1        0.0162
     14 C          65.1527   92.8399   11.6373 C.2     1  UNL1        0.0700
     15 N          64.2519   92.1554   10.6524 N.2     1  UNL1       -0.2477
     16 C          63.7189   90.9112   11.2988 C.2     1  UNL1        0.0965
     17 C          64.2903   90.8267   12.6831 C.2     1  UNL1        0.0077
     18 C          65.1765   92.0187   12.8923 C.3     1  UNL1        0.1210
     19 C          65.0294   91.9073   16.4078 C.3     1  UNL1        0.2520
     20 O          66.0257   91.6413   15.3185 O.2     1  UNL1       -0.4743
     21 C          67.6291   94.1713   15.1509 C.1     1  UNL1        0.1032
     22 N          68.4546   94.6150   16.3221 N.1     1  UNL1       -0.1907
     23 C          62.0634   85.2959   10.3974 C.ar    1  UNL1        0.0100
     24 C          61.8789   84.9679   11.8494 C.ar    1  UNL1       -0.0017
     25 C          62.6506   83.8399   12.4674 C.ar    1  UNL1        0.0020
     26 C          63.6068   83.0397   11.6334 C.ar    1  UNL1        0.0293
     27 C          63.7913   83.3677   10.1814 C.ar    1  UNL1        0.1359
     28 F          64.7475   82.5676    9.3473 F       1  UNL1       -0.2045
     29 C          63.0196   84.4958    9.5634 C.ar    1  UNL1        0.0043
     30 C          63.2041   84.8237    8.1114 C.3     1  UNL1        0.0331
@<TRIPOS>BOND
     1    19    20    1
     2    20    10    1
     3    10    11    2
     4    11    21    1
     5    21    22    3
     6    11    12    1
     7    12    13    2
     8    13    14    1
     9    14    15    2
    10    15    16    1
    11    16     1    1
    12     1     2   ar
    13     2     3   ar
    14     3     4   ar
    15     4     5   ar
    16     4     6    1
    17     6    23    1
    18    23    24   ar
    19    24    25   ar
    20    25    26   ar
    21    26    27   ar
    22    27    28    1
    23    27    29   ar
    24    29    30    1
    25     6     7    1
    26     7     8    1
    27     8     9    1
    28    16    17    2
    29    17    18    1
    30    18    10    1
    31    18    14    1
    32     5     1   ar
    33    29    23   ar
    34     9     3    1
@<TRIPOS>MOLECULE
*****
 30 34 0 0 0
SMALL
GASTEIGER

@<TRIPOS>ATOM
      1 C          64.2196   88.4661   14.5384 C.ar    1  UNL1        0.1171
      2 C          63.7318   88.0109   15.8818 C.ar    1  UNL1        0.0978
      3 N          63.3074   86.5774   15.7596 N.ar    1  UNL1       -0.3089
      4 C          63.5329   86.1466   14.3405 C.ar    1  UNL1        0.1521
      5 N          64.0967   87.3139   13.5858 N.ar    1  UNL1       -0.2266
      6 C          63.1958   84.7471   13.9190 C.3     1  UNL1        0.1933
      7 O          62.6331   83.7783   14.9165 O.3     1  UNL1       -0.3422
      8 C          62.4076   84.2090   16.3355 C.3     1  UNL1        0.1675
      9 C          62.7448   85.6086   16.7570 C.3     1  UNL1        0.1393
     10 C          65.4698   92.9781   12.0061 C.2     1  UNL1        0.1350
     11 C          66.1789   94.2340   12.4183 C.2     1  UNL1        0.0988
     12 C          66.6973   94.3775   13.8184 C.2     1  UNL1        0.0143
     13 C          66.5067   93.2651   14.8065 C.2     1  UNL1        0.0162
     14 C          65.7976   92.0092   14.3943 C.2     1  UNL1        0.0700
     15 N          65.4638   90.7532   15.1433 N.2     1  UNL1       -0.2477
     16 C          64.7390   89.8334   14.2059 C.2     1  UNL1        0.0965
     17 C          64.6249   90.5210   12.8777 C.2     1  UNL1        0.0077
     18 C          65.2791   91.8658   12.9941 C.3     1  UNL1        0.1210
     19 C          63.8271   91.8848   10.3160 C.3     1  UNL1        0.2520
     20 O          64.9513   92.8347   10.6059 O.2     1  UNL1       -0.4743
     21 C          66.3695   95.3464   11.4301 C.1     1  UNL1        0.1032
     22 N          66.5600   96.4588   10.4421 N.1     1  UNL1       -0.1907
     23 C          63.4213   84.3163   12.5000 C.ar    1  UNL1        0.0100
     24 C          64.3936   83.2154   12.1959 C.ar    1  UNL1       -0.0017
     25 C          64.6191   82.7847   10.7769 C.ar    1  UNL1        0.0020
     26 C          63.8723   83.4550    9.6619 C.ar    1  UNL1        0.0293
     27 C          62.8999   84.5559    9.9660 C.ar    1  UNL1        0.1359
     28 F          62.1531   85.2262    8.8512 F       1  UNL1       -0.2045
     29 C          62.6745   84.9866   11.3851 C.ar    1  UNL1        0.0043
     30 C          61.7021   86.0875   11.6892 C.3     1  UNL1        0.0331
@<TRIPOS>BOND
     1    19    20    1
     2    20    10    1
     3    10    11    2
     4    11    21    1
     5    21    22    3
     6    11    12    1
     7    12    13    2
     8    13    14    1
     9    14    15    2
    10    15    16    1
    11    16     1    1
    12     1     2   ar
    13     2     3   ar
    14     3     4   ar
    15     4     5   ar
    16     4     6    1
    17     6    23    1
    18    23    24   ar
    19    24    25   ar
    20    25    26   ar
    21    26    27   ar
    22    27    28    1
    23    27    29   ar
    24    29    30    1
    25     6     7    1
    26     7     8    1
    27     8     9    1
    28    16    17    2
    29    17    18    1
    30    18    10    1
    31    18    14    1
    32     5     1   ar
    33    29    23   ar
    34     9     3    1
@<TRIPOS>MOLECULE
*****
 30 34 0 0 0
SMALL
GASTEIGER

@<TRIPOS>ATOM
      1 C          63.4122   90.2707   11.8429 C.ar    1  UNL1        0.1171
      2 C          63.4799   90.1181   13.3336 C.ar    1  UNL1        0.0978
      3 N          64.3837   91.1891   13.8685 N.ar    1  UNL1       -0.3089
      4 C          64.8746   92.0036   12.7085 C.ar    1  UNL1        0.1521
      5 N          64.2741   91.4359   11.4565 N.ar    1  UNL1       -0.2266
      6 C          65.8048   93.1569   12.9421 C.3     1  UNL1        0.1933
      7 O          66.2442   93.4958   14.3356 O.3     1  UNL1       -0.3422
      8 C          65.7534   92.6814   15.4957 C.3     1  UNL1        0.1675
      9 C          64.8231   91.5280   15.2621 C.3     1  UNL1        0.1393
     10 C          61.8996   86.4241    8.4888 C.2     1  UNL1        0.1350
     11 C          60.6249   86.1346    7.7531 C.2     1  UNL1        0.0988
     12 C          59.4452   87.0477    7.9087 C.2     1  UNL1        0.0143
     13 C          59.5401   88.2505    8.8000 C.2     1  UNL1        0.0162
     14 C          60.8148   88.5400    9.5357 C.2     1  UNL1        0.0700
     15 N          61.2022   89.6416   10.4772 N.2     1  UNL1       -0.2477
     16 C          62.6215   89.4091   10.9035 C.2     1  UNL1        0.0965
     17 C          63.1112   88.1639   10.2255 C.2     1  UNL1        0.0077
     18 C          61.9945   87.6268    9.3801 C.3     1  UNL1        0.1210
     19 C          63.3555   84.4596    9.3669 C.3     1  UNL1        0.2520
     20 O          63.0794   85.5108    8.3332 O.2     1  UNL1       -0.4743
     21 C          60.5300   84.9318    6.8617 C.1     1  UNL1        0.1032
     22 N          60.4351   83.7291    5.9705 N.1     1  UNL1       -0.1907
     23 C          66.2956   93.9714   11.7820 C.ar    1  UNL1        0.0100
     24 C          65.8569   95.3975   11.6278 C.ar    1  UNL1       -0.0017
     25 C          66.3477   96.2119   10.4677 C.ar    1  UNL1        0.0020
     26 C          67.2773   95.6002    9.4617 C.ar    1  UNL1        0.0293
     27 C          67.7160   94.1741    9.6159 C.ar    1  UNL1        0.1359
     28 F          68.6454   93.5624    8.6101 F       1  UNL1       -0.2045
     29 C          67.2251   93.3597   10.7761 C.ar    1  UNL1        0.0043
     30 C          67.6638   91.9336   10.9302 C.3     1  UNL1        0.0331
@<TRIPOS>BOND
     1    19    20    1
     2    20    10    1
     3    10    11    2
     4    11    21    1
     5    21    22    3
     6    11    12    1
     7    12    13    2
     8    13    14    1
     9    14    15    2
    10    15    16    1
    11    16     1    1
    12     1     2   ar
    13     2     3   ar
    14     3     4   ar
    15     4     5   ar
    16     4     6    1
    17     6    23    1
    18    23    24   ar
    19    24    25   ar
    20    25    26   ar
    21    26    27   ar
    22    27    28    1
    23    27    29   ar
    24    29    30    1
    25     6     7    1
    26     7     8    1
    27     8     9    1
    28    16    17    2
    29    17    18    1
    30    18    10    1
    31    18    14    1
    32     5     1   ar
    33    29    23   ar
    34     9     3    1
@<TRIPOS>MOLECULE
*****
 30 34 0 0 0
SMALL
GASTEIGER

@<TRIPOS>ATOM
      1 C          64.2416   90.7044   12.6217 C.ar    1  UNL1        0.1171
      2 C          64.6886   90.6727   14.0532 C.ar    1  UNL1        0.0978
      3 N          65.5610   91.8691   14.2930 N.ar    1  UNL1       -0.3089
      4 C          65.6533   92.6402   13.0096 C.ar    1  UNL1        0.1521
      5 N          64.8378   91.9203   11.9767 N.ar    1  UNL1       -0.2266
      6 C          66.4679   93.8982   12.9474 C.3     1  UNL1        0.1933
      7 O          67.1903   94.3851   14.1685 O.3     1  UNL1       -0.3422
      8 C          67.0981   93.6141   15.4518 C.3     1  UNL1        0.1675
      9 C          66.2834   92.3561   15.5140 C.3     1  UNL1        0.1393
     10 C          60.6032   88.3650    9.5195 C.2     1  UNL1        0.1350
     11 C          60.1432   86.9472    9.3523 C.2     1  UNL1        0.0988
     12 C          60.7601   85.8564   10.1765 C.2     1  UNL1        0.0143
     13 C          61.8371   86.1834   11.1681 C.2     1  UNL1        0.0162
     14 C          62.2971   87.6013   11.3353 C.2     1  UNL1        0.0700
     15 N          63.3318   88.2223   12.2264 N.2     1  UNL1       -0.2477
     16 C          63.3542   89.6969   11.9527 C.2     1  UNL1        0.0965
     17 C          62.3335   89.9873   10.8926 C.2     1  UNL1        0.0077
     18 C          61.6802   88.6921   10.5110 C.3     1  UNL1        0.1210
     19 C          59.9884   89.3574    7.1985 C.3     1  UNL1        0.2520
     20 O          59.9862   89.4559    8.6952 O.2     1  UNL1       -0.4743
     21 C          59.0662   86.6202    8.3607 C.1     1  UNL1        0.1032
     22 N          57.9891   86.2931    7.3692 N.1     1  UNL1       -0.1907
     23 C          66.5601   94.6692   11.6640 C.ar    1  UNL1        0.0100
     24 C          66.0638   96.0833   11.6013 C.ar    1  UNL1       -0.0017
     25 C          66.1560   96.8543   10.3179 C.ar    1  UNL1        0.0020
     26 C          66.7446   96.2112    9.0972 C.ar    1  UNL1        0.0293
     27 C          67.2409   94.7971    9.1599 C.ar    1  UNL1        0.1359
     28 F          67.8295   94.1539    7.9393 F       1  UNL1       -0.2045
     29 C          67.1487   94.0261   10.4434 C.ar    1  UNL1        0.0043
     30 C          67.6450   92.6120   10.5061 C.3     1  UNL1        0.0331
@<TRIPOS>BOND
     1    19    20    1
     2    20    10    1
     3    10    11    2
     4    11    21    1
     5    21    22    3
     6    11    12    1
     7    12    13    2
     8    13    14    1
     9    14    15    2
    10    15    16    1
    11    16     1    1
    12     1     2   ar
    13     2     3   ar
    14     3     4   ar
    15     4     5   ar
    16     4     6    1
    17     6    23    1
    18    23    24   ar
    19    24    25   ar
    20    25    26   ar
    21    26    27   ar
    22    27    28    1
    23    27    29   ar
    24    29    30    1
    25     6     7    1
    26     7     8    1
    27     8     9    1
    28    16    17    2
    29    17    18    1
    30    18    10    1
    31    18    14    1
    32     5     1   ar
    33    29    23   ar
    34     9     3    1
@<TRIPOS>MOLECULE
*****
 30 34 0 0 0
SMALL
GASTEIGER

@<TRIPOS>ATOM
      1 C          63.4313   86.8874   14.4637 C.ar    1  UNL1        0.1171
      2 C          63.3462   87.3268   15.8953 C.ar    1  UNL1        0.0978
      3 N          63.5681   88.8097   15.9390 N.ar    1  UNL1       -0.3089
      4 C          63.7903   89.2867   14.5343 C.ar    1  UNL1        0.1521
      5 N          63.7058   88.0986   13.6225 N.ar    1  UNL1       -0.2266
      6 C          64.0410   90.7413   14.2671 C.3     1  UNL1        0.1933
      7 O          64.0694   91.7188   15.4044 O.3     1  UNL1       -0.3422
      8 C          63.8472   91.2419   16.8091 C.3     1  UNL1        0.1675
      9 C          63.5965   89.7872   17.0763 C.3     1  UNL1        0.1393
     10 C          63.3347   82.5418   11.3910 C.2     1  UNL1        0.1350
     11 C          62.9692   81.1080   11.6372 C.2     1  UNL1        0.0988
     12 C          62.5172   80.6726   12.9995 C.2     1  UNL1        0.0143
     13 C          62.4308   81.6709   14.1158 C.2     1  UNL1        0.0162
     14 C          62.7963   83.1047   13.8696 C.2     1  UNL1        0.0700
     15 N          62.8098   84.3055   14.7684 N.2     1  UNL1       -0.2477
     16 C          63.2702   85.4832   13.9614 C.2     1  UNL1        0.0965
     17 C          63.5411   85.0102   12.5639 C.2     1  UNL1        0.0077
     18 C          63.2482   83.5401   12.5072 C.3     1  UNL1        0.1210
     19 C          63.2843   84.2660    9.4481 C.3     1  UNL1        0.2520
     20 O          63.7866   82.9773   10.0286 O.2     1  UNL1       -0.4743
     21 C          63.0556   80.1097   10.5210 C.1     1  UNL1        0.1032
     22 N          63.1421   79.1115    9.4047 N.1     1  UNL1       -0.1907
     23 C          64.2632   91.2182   12.8624 C.ar    1  UNL1        0.0100
     24 C          63.2302   90.9524   11.8078 C.ar    1  UNL1       -0.0017
     25 C          63.4524   91.4293   10.4031 C.ar    1  UNL1        0.0020
     26 C          64.7077   92.1722   10.0530 C.ar    1  UNL1        0.0293
     27 C          65.7407   92.4380   11.1076 C.ar    1  UNL1        0.1359
     28 F          66.9960   93.1808   10.7576 F       1  UNL1       -0.2045
     29 C          65.5184   91.9610   12.5123 C.ar    1  UNL1        0.0043
     30 C          66.5514   92.2269   13.5669 C.3     1  UNL1        0.0331
@<TRIPOS>BOND
     1    19    20    1
     2    20    10    1
     3    10    11    2
     4    11    21    1
     5    21    22    3
     6    11    12    1
     7    12    13    2
     8    13    14    1
     9    14    15    2
    10    15    16    1
    11    16     1    1
    12     1     2   ar
    13     2     3   ar
    14     3     4   ar
    15     4     5   ar
    16     4     6    1
    17     6    23    1
    18    23    24   ar
    19    24    25   ar
    20    25    26   ar
    21    26    27   ar
    22    27    28    1
    23    27    29   ar
    24    29    30    1
    25     6     7    1
    26     7     8    1
    27     8     9    1
    28    16    17    2
    29    17    18    1
    30    18    10    1
    31    18    14    1
    32     5     1   ar
    33    29    23   ar
    34     9     3    1
@<TRIPOS>MOLECULE
*****
 30 34 0 0 0
SMALL
GASTEIGER

@<TRIPOS>ATOM
      1 C          63.5062   86.5205   13.8049 C.ar    1  UNL1        0.1171
      2 C          63.2772   86.6935   15.2771 C.ar    1  UNL1        0.0978
      3 N          63.4114   88.1524   15.5989 N.ar    1  UNL1       -0.3089
      4 C          63.7234   88.8812   14.3254 C.ar    1  UNL1        0.1521
      5 N          63.7820   87.8726   13.2166 N.ar    1  UNL1       -0.2266
      6 C          63.9137   90.3690   14.3401 C.3     1  UNL1        0.1933
      7 O          63.7921   91.1281   15.6281 O.3     1  UNL1       -0.3422
      8 C          63.4802   90.3994   16.9015 C.3     1  UNL1        0.1675
      9 C          63.2898   88.9115   16.8869 C.3     1  UNL1        0.1393
     10 C          62.8629   81.4074   12.4721 C.2     1  UNL1        0.1350
     11 C          63.0825   80.6320   11.2070 C.2     1  UNL1        0.0988
     12 C          63.5906   81.3281    9.9793 C.2     1  UNL1        0.0143
     13 C          63.8791   82.7997   10.0167 C.2     1  UNL1        0.0162
     14 C          63.6594   83.5751   11.2818 C.2     1  UNL1        0.0700
     15 N          63.8542   85.0240   11.6176 N.2     1  UNL1       -0.2477
     16 C          63.4665   85.2233   13.0528 C.2     1  UNL1        0.0965
     17 C          63.0321   83.8976   13.6041 C.2     1  UNL1        0.0077
     18 C          63.1513   82.8789   12.5095 C.3     1  UNL1        0.1210
     19 C          60.9105   80.8315   14.0865 C.3     1  UNL1        0.2520
     20 O          62.3548   80.7113   13.6998 O.2     1  UNL1       -0.4743
     21 C          62.7940   79.1605   11.1696 C.1     1  UNL1        0.1032
     22 N          62.5056   77.6889   11.1323 N.1     1  UNL1       -0.1907
     23 C          64.2257   91.0976   13.0666 C.ar    1  UNL1        0.0100
     24 C          63.3446   90.9201   11.8657 C.ar    1  UNL1       -0.0017
     25 C          63.6566   91.6488   10.5923 C.ar    1  UNL1        0.0020
     26 C          64.8497   92.5551   10.5197 C.ar    1  UNL1        0.0293
     27 C          65.7308   92.7326   11.7206 C.ar    1  UNL1        0.1359
     28 F          66.9239   93.6388   11.6481 F       1  UNL1       -0.2045
     29 C          65.4188   92.0039   12.9940 C.ar    1  UNL1        0.0043
     30 C          66.2999   92.1814   14.1949 C.3     1  UNL1        0.0331
@<TRIPOS>BOND
     1    19    20    1
     2    20    10    1
     3    10    11    2
     4    11    21    1
     5    21    22    3
     6    11    12    1
     7    12    13    2
     8    13    14    1
     9    14    15    2
    10    15    16    1
    11    16     1    1
    12     1     2   ar
    13     2     3   ar
    14     3     4   ar
    15     4     5   ar
    16     4     6    1
    17     6    23    1
    18    23    24   ar
    19    24    25   ar
    20    25    26   ar
    21    26    27   ar
    22    27    28    1
    23    27    29   ar
    24    29    30    1
    25     6     7    1
    26     7     8    1
    27     8     9    1
    28    16    17    2
    29    17    18    1
    30    18    10    1
    31    18    14    1
    32     5     1   ar
    33    29    23   ar
    34     9     3    1
