@<TRIPOS>MOLECULE
*****
 37 41 0 0 0
SMALL
GASTEIGER

@<TRIPOS>ATOM
      1 C          61.2562   87.9336    9.7368 C.3     1  UNL1        0.2246
      2 C          61.5423   86.5676    9.1871 C.2     1  UNL1        0.0436
      3 C          60.6253   85.9631    8.1654 C.2     1  UNL1        0.0288
      4 C          59.4223   86.7246    7.6934 C.2     1  UNL1        0.0896
      5 N          59.1362   88.0906    8.2431 N.am    1  UNL1       -0.1770
      6 C          60.0531   88.6951    9.2647 C.2     1  UNL1        0.2627
      7 O          59.7670   90.0611    9.8144 O.2     1  UNL1       -0.2719
      8 C          64.0656   87.5554   14.9376 C.3     1  UNL1        0.0312
      9 C          64.2218   88.7737   14.0765 C.2     1  UNL1        0.0126
     10 C          65.0940   89.9063   14.5308 C.2     1  UNL1        0.0036
     11 C          65.2503   91.1245   13.6697 C.2     1  UNL1        0.0847
     12 C          64.5344   91.2101   12.3543 C.2     1  UNL1        0.0541
     13 C          63.6622   90.0775   11.9001 C.2     1  UNL1        0.2236
     14 N          62.8385   89.8791   10.6623 N.2     1  UNL1       -0.0378
     15 C          62.1731   88.5382   10.7584 C.2     1  UNL1        0.3605
     16 N          62.5856   87.9079   12.0556 N.2     1  UNL1       -0.0547
     17 C          63.5059   88.8593   12.7612 C.3     1  UNL1        0.2975
     18 C          66.1226   92.2572   14.1240 C.2     1  UNL1        0.3157
     19 N          67.1914   92.1808   15.1737 N.2     1  UNL1       -0.0657
     20 C          67.8085   93.5414   15.3068 C.3     1  UNL1        0.2611
     21 C          68.9181   93.9185   16.2429 C.3     1  UNL1        0.0623
     22 C          67.1211   94.4588   14.3394 C.3     1  UNL1        0.2528
     23 N          66.0792   93.6651   13.6084 N.pl3   1  UNL1       -0.2154
     24 H          65.4732   94.0080   12.9123 H       1  UNL1        0.2924
     25 N          62.7453   85.8061    9.6591 N.pl3   1  UNL1       -0.3329
     26 H          63.5220   86.2892   10.0233 H       1  UNL1        0.1466
     27 C          62.7651   84.3085    9.5760 C.3     1  UNL1        0.1211
     28 C          63.6146   83.5159   10.5248 C.3     1  UNL1        0.1522
     29 O          64.9053   82.9148   10.0527 O.3     1  UNL1       -0.3783
     30 H          65.0397   83.1316    9.1168 H       1  UNL1        0.2109
     31 C          63.1735   83.3245   11.9456 C.ar    1  UNL1        0.0067
     32 C          63.5414   84.3381   12.9882 C.ar    1  UNL1       -0.0018
     33 C          63.1003   84.1467   14.4090 C.ar    1  UNL1        0.0006
     34 C          62.2911   82.9416   14.7872 C.ar    1  UNL1        0.0114
     35 C          61.9231   81.9281   13.7446 C.ar    1  UNL1        0.0574
     36 CL         61.1139   80.7230   14.1228 Cl      1  UNL1       -0.0823
     37 C          62.3643   82.1195   12.3238 C.ar    1  UNL1        0.0095
@<TRIPOS>BOND
     1     8     9    1
     2     9    10    2
     3    10    11    1
     4    11    18    1
     5    18    19    2
     6    19    20    1
     7    20    21    1
     8    20    22    1
     9    22    23    1
    10    11    12    2
    11    12    13    1
    12    13    14    2
    13    14    15    1
    14    15     1    1
    15     1     2    1
    16     2    25    1
    17    25    27    1
    18    27    28    1
    19    28    29    1
    20    28    31    1
    21    31    32   ar
    22    32    33   ar
    23    33    34   ar
    24    34    35   ar
    25    35    36    1
    26    35    37   ar
    27     2     3    2
    28     3     4    1
    29     4     5    2
    30     5     6    1
    31     6     7    2
    32    15    16    2
    33    16    17    1
    34    17     9    1
    35    23    18    1
    36    17    13    1
    37     6     1    1
    38    37    31   ar
    39    23    24    1
    40    25    26    1
    41    29    30    1
@<TRIPOS>MOLECULE
*****
 37 41 0 0 0
SMALL
GASTEIGER

@<TRIPOS>ATOM
      1 C          64.5322   90.6781   14.7821 C.3     1  UNL1        0.2246
      2 C          65.5140   91.6245   14.1574 C.2     1  UNL1        0.0436
      3 C          65.9431   92.8566   14.8976 C.2     1  UNL1        0.0288
      4 C          65.3903   93.1424   16.2624 C.2     1  UNL1        0.0896
      5 N          64.4085   92.1960   16.8871 N.am    1  UNL1       -0.1770
      6 C          63.9794   90.9639   16.1469 C.2     1  UNL1        0.2627
      7 O          62.9975   90.0175   16.7717 O.2     1  UNL1       -0.2719
      8 C          61.9056   88.1933   10.0905 C.3     1  UNL1        0.0312
      9 C          62.4884   87.3381   11.1764 C.2     1  UNL1        0.0126
     10 C          62.4082   85.8435   11.0783 C.2     1  UNL1        0.0036
     11 C          62.9909   84.9884   12.1641 C.2     1  UNL1        0.0847
     12 C          63.6539   85.6278   13.3480 C.2     1  UNL1        0.0541
     13 C          63.7341   87.1224   13.4460 C.2     1  UNL1        0.2236
     14 N          64.3223   88.0299   14.4855 N.2     1  UNL1       -0.0378
     15 C          64.1031   89.4460   14.0420 C.2     1  UNL1        0.3605
     16 N          63.3794   89.4137   12.7285 N.2     1  UNL1       -0.0547
     17 C          63.1514   87.9776   12.3602 C.3     1  UNL1        0.2975
     18 C          62.9107   83.4936   12.0661 C.2     1  UNL1        0.3157
     19 N          62.4031   82.5663   13.1302 N.2     1  UNL1       -0.0657
     20 C          62.5026   81.1635   12.6085 C.3     1  UNL1        0.2611
     21 C          62.1032   79.9188   13.3442 C.3     1  UNL1        0.0623
     22 C          63.0717   81.2238   11.2220 C.3     1  UNL1        0.2528
     23 N          63.3239   82.6640   10.8868 N.pl3   1  UNL1       -0.2154
     24 H          63.6955   83.0048   10.0412 H       1  UNL1        0.2924
     25 N          66.0669   91.3388   12.7926 N.pl3   1  UNL1       -0.3329
     26 H          65.6176   90.6883   12.2058 H       1  UNL1        0.1466
     27 C          67.3041   92.0442   12.3217 C.3     1  UNL1        0.1211
     28 C          67.3738   92.5836   10.9238 C.3     1  UNL1        0.1522
     29 O          67.8313   91.7004    9.8011 O.3     1  UNL1       -0.3783
     30 H          68.0419   90.8194   10.1480 H       1  UNL1        0.2109
     31 C          66.9860   94.0062   10.6487 C.ar    1  UNL1        0.0067
     32 C          66.2922   94.8125   11.7063 C.ar    1  UNL1       -0.0018
     33 C          65.9043   96.2351   11.4312 C.ar    1  UNL1        0.0006
     34 C          66.2103   96.8515   10.0984 C.ar    1  UNL1        0.0114
     35 C          66.9042   96.0453    9.0408 C.ar    1  UNL1        0.0574
     36 CL         67.2102   96.6618    7.7080 Cl      1  UNL1       -0.0823
     37 C          67.2920   94.6227    9.3159 C.ar    1  UNL1        0.0095
@<TRIPOS>BOND
     1     8     9    1
     2     9    10    2
     3    10    11    1
     4    11    18    1
     5    18    19    2
     6    19    20    1
     7    20    21    1
     8    20    22    1
     9    22    23    1
    10    11    12    2
    11    12    13    1
    12    13    14    2
    13    14    15    1
    14    15     1    1
    15     1     2    1
    16     2    25    1
    17    25    27    1
    18    27    28    1
    19    28    29    1
    20    28    31    1
    21    31    32   ar
    22    32    33   ar
    23    33    34   ar
    24    34    35   ar
    25    35    36    1
    26    35    37   ar
    27     2     3    2
    28     3     4    1
    29     4     5    2
    30     5     6    1
    31     6     7    2
    32    15    16    2
    33    16    17    1
    34    17     9    1
    35    23    18    1
    36    17    13    1
    37     6     1    1
    38    37    31   ar
    39    23    24    1
    40    25    26    1
    41    29    30    1
@<TRIPOS>MOLECULE
*****
 37 41 0 0 0
SMALL
GASTEIGER

@<TRIPOS>ATOM
      1 C          65.1004   91.5029   13.5180 C.3     1  UNL1        0.2246
      2 C          64.8363   91.9370   12.1068 C.2     1  UNL1        0.0436
      3 C          65.2785   93.2938   11.6443 C.2     1  UNL1        0.0288
      4 C          65.9848   94.2163   12.5931 C.2     1  UNL1        0.0896
      5 N          66.2489   93.7821   14.0043 N.am    1  UNL1       -0.1770
      6 C          65.8067   92.4253   14.4668 C.2     1  UNL1        0.2627
      7 O          66.0708   91.9912   15.8781 O.2     1  UNL1       -0.2719
      8 C          63.0340   87.9967   17.8217 C.3     1  UNL1        0.0312
      9 C          63.3145   87.4402   16.4573 C.2     1  UNL1        0.0126
     10 C          63.0718   85.9870   16.1756 C.2     1  UNL1        0.0036
     11 C          63.3522   85.4304   14.8113 C.2     1  UNL1        0.0847
     12 C          63.8754   86.3271   13.7285 C.2     1  UNL1        0.0541
     13 C          64.1181   87.7802   14.0101 C.2     1  UNL1        0.2236
     14 N          64.6252   88.8985   13.1486 N.2     1  UNL1       -0.0378
     15 C          64.6583   90.1462   13.9806 C.2     1  UNL1        0.3605
     16 N          64.1715   89.7991   15.3563 N.2     1  UNL1       -0.0547
     17 C          63.8376   88.3368   15.3745 C.3     1  UNL1        0.2975
     18 C          63.1095   83.9772   14.5297 C.2     1  UNL1        0.3157
     19 N          61.7844   83.2767   14.5900 N.2     1  UNL1       -0.0657
     20 C          62.0052   81.8360   14.2359 C.3     1  UNL1        0.2611
     21 C          60.9498   80.7720   14.1721 C.3     1  UNL1        0.0623
     22 C          63.4666   81.6459   13.9567 C.3     1  UNL1        0.2528
     23 N          64.1491   82.9693   14.1383 N.pl3   1  UNL1       -0.2154
     24 H          65.1106   83.1454   14.0211 H       1  UNL1        0.2924
     25 N          64.1301   91.0146   11.1579 N.pl3   1  UNL1       -0.3329
     26 H          64.6483   90.3866   10.6046 H       1  UNL1        0.1466
     27 C          62.6342   91.0491   11.0522 C.3     1  UNL1        0.1211
     28 C          61.8216   89.8817   11.5284 C.3     1  UNL1        0.1522
     29 O          61.4001   89.7977   12.9656 O.3     1  UNL1       -0.3783
     30 H          61.7330   90.5719   13.4459 H       1  UNL1        0.2109
     31 C          61.4305   88.7983   10.5676 C.ar    1  UNL1        0.0067
     32 C          61.9991   87.4188   10.7206 C.ar    1  UNL1       -0.0018
     33 C          61.6080   86.3354    9.7598 C.ar    1  UNL1        0.0006
     34 C          60.6481   86.6315    8.6458 C.ar    1  UNL1        0.0114
     35 C          60.0794   88.0110    8.4928 C.ar    1  UNL1        0.0574
     36 CL         59.1195   88.3071    7.3788 Cl      1  UNL1       -0.0823
     37 C          60.4706   89.0944    9.4536 C.ar    1  UNL1        0.0095
@<TRIPOS>BOND
     1     8     9    1
     2     9    10    2
     3    10    11    1
     4    11    18    1
     5    18    19    2
     6    19    20    1
     7    20    21    1
     8    20    22    1
     9    22    23    1
    10    11    12    2
    11    12    13    1
    12    13    14    2
    13    14    15    1
    14    15     1    1
    15     1     2    1
    16     2    25    1
    17    25    27    1
    18    27    28    1
    19    28    29    1
    20    28    31    1
    21    31    32   ar
    22    32    33   ar
    23    33    34   ar
    24    34    35   ar
    25    35    36    1
    26    35    37   ar
    27     2     3    2
    28     3     4    1
    29     4     5    2
    30     5     6    1
    31     6     7    2
    32    15    16    2
    33    16    17    1
    34    17     9    1
    35    23    18    1
    36    17    13    1
    37     6     1    1
    38    37    31   ar
    39    23    24    1
    40    25    26    1
    41    29    30    1
@<TRIPOS>MOLECULE
*****
 37 41 0 0 0
SMALL
GASTEIGER

@<TRIPOS>ATOM
      1 C          64.4099   90.3947   13.1130 C.3     1  UNL1        0.2246
      2 C          63.9099   90.9041   11.7937 C.2     1  UNL1        0.0436
      3 C          64.2638   92.2901   11.3421 C.2     1  UNL1        0.0288
      4 C          65.1175   93.1666   12.2097 C.2     1  UNL1        0.0896
      5 N          65.6175   92.6572   13.5290 N.am    1  UNL1       -0.1770
      6 C          65.2636   91.2712   13.9806 C.2     1  UNL1        0.2627
      7 O          65.7636   90.7618   15.2999 O.2     1  UNL1       -0.2719
      8 C          63.1728   86.6128   17.5007 C.3     1  UNL1        0.0312
      9 C          63.1890   86.1443   16.0758 C.2     1  UNL1        0.0126
     10 C          62.8907   84.7098   15.7545 C.2     1  UNL1        0.0036
     11 C          62.9069   84.2413   14.3297 C.2     1  UNL1        0.0847
     12 C          63.2214   85.2073   13.2260 C.2     1  UNL1        0.0541
     13 C          63.5197   86.6418   13.5473 C.2     1  UNL1        0.2236
     14 N          63.8612   87.8151   12.6774 N.2     1  UNL1       -0.0378
     15 C          64.0560   89.0087   13.5647 C.2     1  UNL1        0.3605
     16 N          63.8350   88.5732   14.9829 N.2     1  UNL1       -0.0547
     17 C          63.5035   87.1103   14.9722 C.3     1  UNL1        0.2975
     18 C          62.6085   82.8067   14.0085 C.2     1  UNL1        0.3157
     19 N          62.9893   82.0879   12.7482 N.2     1  UNL1       -0.0657
     20 C          62.4932   80.6761   12.8519 C.3     1  UNL1        0.2611
     21 C          62.6558   79.6060   11.8135 C.3     1  UNL1        0.0623
     22 C          61.8059   80.5224   14.1762 C.3     1  UNL1        0.2528
     23 N          61.8772   81.8392   14.8910 N.pl3   1  UNL1       -0.2154
     24 H          61.5086   82.0342   15.7829 H       1  UNL1        0.2924
     25 N          63.0561   90.0276   10.9260 N.pl3   1  UNL1       -0.3329
     26 H          63.4758   89.3608   10.3357 H       1  UNL1        0.1466
     27 C          61.5630   90.1671   10.9578 C.3     1  UNL1        0.1211
     28 C          60.6973   88.9452   11.0449 C.3     1  UNL1        0.1522
     29 O          59.8020   88.7435   12.2314 O.3     1  UNL1       -0.3783
     30 H          59.9032   89.4892   12.8434 H       1  UNL1        0.2109
     31 C          60.7271   87.9250    9.9457 C.ar    1  UNL1        0.0067
     32 C          59.5544   87.7843    9.0211 C.ar    1  UNL1       -0.0018
     33 C          59.5841   86.7642    7.9218 C.ar    1  UNL1        0.0006
     34 C          60.7866   85.8846    7.7471 C.ar    1  UNL1        0.0114
     35 C          61.9593   86.0253    8.6717 C.ar    1  UNL1        0.0574
     36 CL         63.1617   85.1458    8.4971 Cl      1  UNL1       -0.0823
     37 C          61.9295   87.0455    9.7710 C.ar    1  UNL1        0.0095
@<TRIPOS>BOND
     1     8     9    1
     2     9    10    2
     3    10    11    1
     4    11    18    1
     5    18    19    2
     6    19    20    1
     7    20    21    1
     8    20    22    1
     9    22    23    1
    10    11    12    2
    11    12    13    1
    12    13    14    2
    13    14    15    1
    14    15     1    1
    15     1     2    1
    16     2    25    1
    17    25    27    1
    18    27    28    1
    19    28    29    1
    20    28    31    1
    21    31    32   ar
    22    32    33   ar
    23    33    34   ar
    24    34    35   ar
    25    35    36    1
    26    35    37   ar
    27     2     3    2
    28     3     4    1
    29     4     5    2
    30     5     6    1
    31     6     7    2
    32    15    16    2
    33    16    17    1
    34    17     9    1
    35    23    18    1
    36    17    13    1
    37     6     1    1
    38    37    31   ar
    39    23    24    1
    40    25    26    1
    41    29    30    1
@<TRIPOS>MOLECULE
*****
 37 41 0 0 0
SMALL
GASTEIGER

@<TRIPOS>ATOM
      1 C          63.8808   90.8419   14.3297 C.3     1  UNL1        0.2246
      2 C          63.6955   90.5875   15.7962 C.2     1  UNL1        0.0436
      3 C          64.4978   91.3625   16.7991 C.2     1  UNL1        0.0288
      4 C          65.4854   92.3919   16.3355 C.2     1  UNL1        0.0896
      5 N          65.6707   92.6463   14.8689 N.am    1  UNL1       -0.1770
      6 C          64.8684   91.8713   13.8660 C.2     1  UNL1        0.2627
      7 O          65.0538   92.1258   12.3994 O.2     1  UNL1       -0.2719
      8 C          58.6144   89.1713   12.1946 C.3     1  UNL1        0.0312
      9 C          59.8819   88.6873   11.5547 C.2     1  UNL1        0.0126
     10 C          59.8209   87.7743   10.3662 C.2     1  UNL1        0.0036
     11 C          61.0882   87.2903    9.7263 C.2     1  UNL1        0.0847
     12 C          62.4168   87.7195   10.2750 C.2     1  UNL1        0.0541
     13 C          62.4778   88.6325   11.4634 C.2     1  UNL1        0.2236
     14 N          63.6324   89.2200   12.2195 N.2     1  UNL1       -0.0378
     15 C          63.0786   90.0670   13.3267 C.2     1  UNL1        0.3605
     16 N          61.5817   90.0030   13.2549 N.2     1  UNL1       -0.0547
     17 C          61.2103   89.1165   12.1033 C.3     1  UNL1        0.2975
     18 C          61.0271   86.3772    8.5378 C.2     1  UNL1        0.3157
     19 N          62.2013   85.7489    7.8475 N.2     1  UNL1       -0.0657
     20 C          61.6811   84.9155    6.7140 C.3     1  UNL1        0.2611
     21 C          62.5108   84.1103    5.7585 C.3     1  UNL1        0.0623
     22 C          60.1854   85.0287    6.7037 C.3     1  UNL1        0.2528
     23 N          59.7813   85.9321    7.8309 N.pl3   1  UNL1       -0.2154
     24 H          58.8600   86.1880    8.0656 H       1  UNL1        0.2924
     25 N          62.7079   89.5581   16.2600 N.pl3   1  UNL1       -0.3329
     26 H          61.7509   89.6673   16.0564 H       1  UNL1        0.1466
     27 C          63.1784   88.3624   17.0338 C.3     1  UNL1        0.1211
     28 C          62.6020   87.0080   16.7452 C.3     1  UNL1        0.1522
     29 O          61.2640   86.6272   17.3061 O.3     1  UNL1       -0.3783
     30 H          60.9104   87.3646   17.8277 H       1  UNL1        0.2109
     31 C          63.3637   86.0343   15.8955 C.ar    1  UNL1        0.0067
     32 C          64.6767   86.4340   15.2904 C.ar    1  UNL1       -0.0018
     33 C          65.4384   85.4603   14.4408 C.ar    1  UNL1        0.0006
     34 C          64.8870   84.0869   14.1962 C.ar    1  UNL1        0.0114
     35 C          63.5740   83.6873   14.8013 C.ar    1  UNL1        0.0574
     36 CL         63.0226   82.3139   14.5567 Cl      1  UNL1       -0.0823
     37 C          62.8123   84.6609   15.6509 C.ar    1  UNL1        0.0095
@<TRIPOS>BOND
     1     8     9    1
     2     9    10    2
     3    10    11    1
     4    11    18    1
     5    18    19    2
     6    19    20    1
     7    20    21    1
     8    20    22    1
     9    22    23    1
    10    11    12    2
    11    12    13    1
    12    13    14    2
    13    14    15    1
    14    15     1    1
    15     1     2    1
    16     2    25    1
    17    25    27    1
    18    27    28    1
    19    28    29    1
    20    28    31    1
    21    31    32   ar
    22    32    33   ar
    23    33    34   ar
    24    34    35   ar
    25    35    36    1
    26    35    37   ar
    27     2     3    2
    28     3     4    1
    29     4     5    2
    30     5     6    1
    31     6     7    2
    32    15    16    2
    33    16    17    1
    34    17     9    1
    35    23    18    1
    36    17    13    1
    37     6     1    1
    38    37    31   ar
    39    23    24    1
    40    25    26    1
    41    29    30    1
@<TRIPOS>MOLECULE
*****
 37 41 0 0 0
SMALL
GASTEIGER

@<TRIPOS>ATOM
      1 C          61.1361   88.4662    9.4444 C.3     1  UNL1        0.2246
      2 C          61.4540   87.0254    9.1745 C.2     1  UNL1        0.0436
      3 C          60.4839   86.1737    8.4106 C.2     1  UNL1        0.0288
      4 C          59.1959   86.7628    7.9165 C.2     1  UNL1        0.0896
      5 N          58.8780   88.2037    8.1864 N.am    1  UNL1       -0.1770
      6 C          59.8482   89.0554    8.9503 C.2     1  UNL1        0.2627
      7 O          59.5303   90.4962    9.2201 O.2     1  UNL1       -0.2719
      8 C          64.6622   93.2189    9.6961 C.3     1  UNL1        0.0312
      9 C          64.5506   92.2927   10.8707 C.2     1  UNL1        0.0126
     10 C          65.3348   92.5672   12.1195 C.2     1  UNL1        0.0036
     11 C          65.2233   91.6409   13.2940 C.2     1  UNL1        0.0847
     12 C          64.3274   90.4401   13.2198 C.2     1  UNL1        0.0541
     13 C          63.5431   90.1656   11.9710 C.2     1  UNL1        0.2236
     14 N          62.5860   89.0693   11.6075 N.2     1  UNL1       -0.0378
     15 C          62.1062   89.3180   10.2082 C.2     1  UNL1        0.3605
     16 N          62.7666   90.5680    9.7070 N.2     1  UNL1       -0.0547
     17 C          63.6547   91.0919   10.7964 C.3     1  UNL1        0.2975
     18 C          66.0076   91.9155   14.5428 C.2     1  UNL1        0.3157
     19 N          67.5021   91.8915   14.6685 N.2     1  UNL1       -0.0657
     20 C          67.8532   92.2233   16.0885 C.3     1  UNL1        0.2611
     21 C          69.2386   92.3108   16.6568 C.3     1  UNL1        0.0623
     22 C          66.5758   92.4524   16.8405 C.3     1  UNL1        0.2528
     23 N          65.4351   92.2622   15.8852 N.pl3   1  UNL1       -0.2154
     24 H          64.4786   92.3495   16.1013 H       1  UNL1        0.2924
     25 N          62.7419   86.4362    9.6685 N.pl3   1  UNL1       -0.3329
     26 H          63.5913   86.9091    9.5128 H       1  UNL1        0.1466
     27 C          62.7359   85.1265   10.3998 C.3     1  UNL1        0.1211
     28 C          62.8396   85.1025   11.8960 C.3     1  UNL1        0.1522
     29 O          63.0926   86.3738   12.6508 O.3     1  UNL1       -0.3783
     30 H          63.1632   87.1123   12.0258 H       1  UNL1        0.2109
     31 C          62.6903   83.8071   12.6374 C.ar    1  UNL1        0.0067
     32 C          62.4708   83.8131   14.1212 C.ar    1  UNL1       -0.0018
     33 C          62.3215   82.5178   14.8626 C.ar    1  UNL1        0.0006
     34 C          62.3917   81.2163   14.1202 C.ar    1  UNL1        0.0114
     35 C          62.6112   81.2102   12.6364 C.ar    1  UNL1        0.0574
     36 CL         62.6814   79.9087   11.8939 Cl      1  UNL1       -0.0823
     37 C          62.7605   82.5056   11.8949 C.ar    1  UNL1        0.0095
@<TRIPOS>BOND
     1     8     9    1
     2     9    10    2
     3    10    11    1
     4    11    18    1
     5    18    19    2
     6    19    20    1
     7    20    21    1
     8    20    22    1
     9    22    23    1
    10    11    12    2
    11    12    13    1
    12    13    14    2
    13    14    15    1
    14    15     1    1
    15     1     2    1
    16     2    25    1
    17    25    27    1
    18    27    28    1
    19    28    29    1
    20    28    31    1
    21    31    32   ar
    22    32    33   ar
    23    33    34   ar
    24    34    35   ar
    25    35    36    1
    26    35    37   ar
    27     2     3    2
    28     3     4    1
    29     4     5    2
    30     5     6    1
    31     6     7    2
    32    15    16    2
    33    16    17    1
    34    17     9    1
    35    23    18    1
    36    17    13    1
    37     6     1    1
    38    37    31   ar
    39    23    24    1
    40    25    26    1
    41    29    30    1
