@<TRIPOS>MOLECULE
*****
 33 36 0 0 0
SMALL
GASTEIGER

@<TRIPOS>ATOM
      1 C          65.8787   92.2941   13.3708 C.3     1  UNL1        0.1338
      2 C          66.3531   92.8352   14.6869 C.2     1  UNL1        0.0732
      3 C          65.4197   92.3442   15.7535 C.2     1  UNL1        0.1887
      4 O          65.5200   92.6449   17.2196 O.2     1  UNL1       -0.5020
      5 C          64.3683   91.4996   15.0966 C.2     1  UNL1        0.2869
      6 O          63.2327   90.8076   15.7904 O.2     1  UNL1       -0.2662
      7 N          64.6521   91.4687   13.6240 N.am    1  UNL1       -0.2463
      8 H          66.2148   93.1854   17.5406 H       1  UNL1        0.2924
      9 C          66.4000   93.8796   11.3797 C.ar    1  UNL1        0.1366
     10 C          67.0398   94.1215   10.0448 C.ar    1  UNL1        0.0366
     11 C          67.7982   93.0197    9.3660 C.ar    1  UNL1        0.0031
     12 C          67.9168   91.6760   10.0221 C.ar    1  UNL1       -0.0001
     13 C          67.2770   91.4341   11.3570 C.ar    1  UNL1        0.0007
     14 C          66.5186   92.5359   12.0358 C.ar    1  UNL1        0.0344
     15 C          65.9030   96.4111   11.6874 C.3     1  UNL1        0.2525
     16 O          65.6415   94.9814   12.0585 O.3     1  UNL1       -0.4717
     17 C          63.8499   90.7403   12.5867 C.ar    1  UNL1        0.0548
     18 C          63.4150   91.4508   11.3394 C.ar    1  UNL1        0.0149
     19 C          62.6129   90.7224   10.3021 C.ar    1  UNL1        0.0013
     20 C          62.2457   89.2833   10.5122 C.ar    1  UNL1        0.0006
     21 C          62.6806   88.5726   11.7596 C.ar    1  UNL1        0.0013
     22 C          63.4827   89.3011   12.7968 C.ar    1  UNL1        0.0149
     23 C          61.4435   88.5548    9.4749 C.ar    1  UNL1        0.0070
     24 C          61.6592   87.1396    9.0271 C.ar    1  UNL1        0.0075
     25 C          60.6339   86.8238    7.9788 C.ar    1  UNL1        0.0355
     26 S          59.7845   88.0439    7.7786 S.2     1  UNL1       -0.0859
     27 C          60.2850   89.1137    8.7034 C.ar    1  UNL1        0.0354
     28 C          67.5507   93.7131   14.8992 C.2     1  UNL1        0.1732
     29 O          67.8515   94.9860   14.5647 O.2     1  UNL1       -0.2915
     30 C          68.7486   93.1837   15.6303 C.3     1  UNL1        0.0554
     31 C          69.0511   94.5638   16.1340 C.3     1  UNL1        0.0077
     32 C          68.4461   91.8036   15.1266 C.3     1  UNL1        0.0077
     33 C          69.9466   92.6542   16.3614 C.3     1  UNL1        0.0077
@<TRIPOS>BOND
     1    15    16    1
     2    16     9    1
     3     9    10   ar
     4    10    11   ar
     5    11    12   ar
     6    12    13   ar
     7    13    14   ar
     8    14     1    1
     9     1     2    1
    10     2    28    1
    11    28    29    2
    12    28    30    1
    13    30    31    1
    14    30    32    1
    15    30    33    1
    16     2     3    2
    17     3     4    1
    18     3     5    1
    19     5     6    2
    20     5     7   am
    21     7    17    1
    22    17    18   ar
    23    18    19   ar
    24    19    20   ar
    25    20    23    1
    26    23    24   ar
    27    24    25   ar
    28    25    26   ar
    29    26    27   ar
    30    20    21   ar
    31    21    22   ar
    32    14     9   ar
    33     7     1    1
    34    22    17   ar
    35    27    23   ar
    36     4     8    1
@<TRIPOS>MOLECULE
*****
 33 36 0 0 0
SMALL
GASTEIGER

@<TRIPOS>ATOM
      1 C          64.9387   91.3089   13.7319 C.3     1  UNL1        0.1338
      2 C          65.9123   92.3812   14.1221 C.2     1  UNL1        0.0732
      3 C          66.1162   93.2762   12.9358 C.2     1  UNL1        0.1887
      4 O          67.0106   94.4791   12.8822 O.2     1  UNL1       -0.5020
      5 C          65.2685   92.7570   11.8123 C.2     1  UNL1        0.2869
      6 O          65.1666   93.3497   10.4382 O.2     1  UNL1       -0.2662
      7 N          64.5408   91.5412   12.3044 N.am    1  UNL1       -0.2463
      8 H          67.5052   94.7292   13.6378 H       1  UNL1        0.2924
      9 C          63.5918   90.5106   15.8053 C.ar    1  UNL1        0.1366
     10 C          63.1020   89.4010   16.6877 C.ar    1  UNL1        0.0366
     11 C          63.4692   87.9798   16.3791 C.ar    1  UNL1        0.0031
     12 C          64.3262   87.6682   15.1881 C.ar    1  UNL1       -0.0001
     13 C          64.8161   88.7779   14.3057 C.ar    1  UNL1        0.0007
     14 C          64.4488   90.1991   14.6143 C.ar    1  UNL1        0.0344
     15 C          63.7426   92.5867   17.3601 C.3     1  UNL1        0.2525
     16 O          63.2246   91.9319   16.1139 O.3     1  UNL1       -0.4717
     17 C          63.5833   90.7045   11.5087 C.ar    1  UNL1        0.0548
     18 C          62.9969   91.2409   10.2366 C.ar    1  UNL1        0.0149
     19 C          62.0394   90.4042    9.4408 C.ar    1  UNL1        0.0013
     20 C          61.6684   89.0311    9.9172 C.ar    1  UNL1        0.0006
     21 C          62.2548   88.4947   11.1894 C.ar    1  UNL1        0.0013
     22 C          63.2123   89.3314   11.9850 C.ar    1  UNL1        0.0149
     23 C          60.7109   88.1945    9.1214 C.ar    1  UNL1        0.0070
     24 C          60.5817   86.7014    9.1848 C.ar    1  UNL1        0.0075
     25 C          59.5055   86.2881    8.2252 C.ar    1  UNL1        0.0355
     26 S          58.9695   87.5258    7.5687 S.2     1  UNL1       -0.0859
     27 C          59.7145   88.7040    8.1227 C.ar    1  UNL1        0.0354
     28 C          66.5671   92.5320   15.4632 C.2     1  UNL1        0.1732
     29 O          66.1034   92.7100   16.7186 O.2     1  UNL1       -0.2915
     30 C          68.0623   92.4956   15.5762 C.3     1  UNL1        0.0554
     31 C          68.0686   91.0943   15.0413 C.3     1  UNL1        0.0077
     32 C          68.0560   93.8970   16.1112 C.3     1  UNL1        0.0077
     33 C          69.5576   92.4592   15.6893 C.3     1  UNL1        0.0077
@<TRIPOS>BOND
     1    15    16    1
     2    16     9    1
     3     9    10   ar
     4    10    11   ar
     5    11    12   ar
     6    12    13   ar
     7    13    14   ar
     8    14     1    1
     9     1     2    1
    10     2    28    1
    11    28    29    2
    12    28    30    1
    13    30    31    1
    14    30    32    1
    15    30    33    1
    16     2     3    2
    17     3     4    1
    18     3     5    1
    19     5     6    2
    20     5     7   am
    21     7    17    1
    22    17    18   ar
    23    18    19   ar
    24    19    20   ar
    25    20    23    1
    26    23    24   ar
    27    24    25   ar
    28    25    26   ar
    29    26    27   ar
    30    20    21   ar
    31    21    22   ar
    32    14     9   ar
    33     7     1    1
    34    22    17   ar
    35    27    23   ar
    36     4     8    1
@<TRIPOS>MOLECULE
*****
 33 36 0 0 0
SMALL
GASTEIGER

@<TRIPOS>ATOM
      1 C          62.7177   87.5802   11.9190 C.3     1  UNL1        0.1338
      2 C          63.1160   88.8697   12.5736 C.2     1  UNL1        0.0732
      3 C          64.0127   88.5443   13.7312 C.2     1  UNL1        0.1887
      4 O          64.6429   89.5355   14.6641 O.2     1  UNL1       -0.5020
      5 C          64.1687   87.0536   13.7920 C.2     1  UNL1        0.2869
      6 O          64.9822   86.2925   14.7964 O.2     1  UNL1       -0.2662
      7 N          63.3683   86.4578   12.6720 N.am    1  UNL1       -0.2463
      8 H          64.4878   90.4523   14.5482 H       1  UNL1        0.2924
      9 C          60.3645   87.7594   10.8325 C.ar    1  UNL1        0.1366
     10 C          59.4723   87.6172    9.6352 C.ar    1  UNL1        0.0366
     11 C          60.0410   87.1536    8.3269 C.ar    1  UNL1        0.0031
     12 C          61.5020   86.8322    8.2160 C.ar    1  UNL1       -0.0001
     13 C          62.3942   86.9744    9.4133 C.ar    1  UNL1        0.0007
     14 C          61.8255   87.4380   10.7216 C.ar    1  UNL1        0.0344
     15 C          58.7619   89.3094   12.1664 C.3     1  UNL1        0.2525
     16 O          59.7958   88.2230   12.1409 O.3     1  UNL1       -0.4717
     17 C          63.2409   84.9962   12.3599 C.ar    1  UNL1        0.0548
     18 C          63.6593   84.4769   11.0163 C.ar    1  UNL1        0.0149
     19 C          63.5319   83.0153   10.7041 C.ar    1  UNL1        0.0013
     20 C          62.9860   82.0729   11.7356 C.ar    1  UNL1        0.0006
     21 C          62.5676   82.5921   13.0793 C.ar    1  UNL1        0.0013
     22 C          62.6951   84.0538   13.3913 C.ar    1  UNL1        0.0149
     23 C          62.8586   80.6113   11.4234 C.ar    1  UNL1        0.0070
     24 C          62.5647   79.5212   12.4110 C.ar    1  UNL1        0.0075
     25 C          62.5272   78.2194   11.6669 C.ar    1  UNL1        0.0355
     26 S          62.7980   78.5049   10.2193 S.2     1  UNL1       -0.0859
     27 C          63.0028   79.9832   10.0690 C.ar    1  UNL1        0.0354
     28 C          62.6920   90.2435   12.1458 C.2     1  UNL1        0.1732
     29 O          61.5527   90.9561   12.2750 O.2     1  UNL1       -0.2915
     30 C          63.6493   91.1260   11.4012 C.3     1  UNL1        0.0554
     31 C          63.0516   90.6774   10.1007 C.3     1  UNL1        0.0077
     32 C          64.2472   91.5747   12.7017 C.3     1  UNL1        0.0077
     33 C          64.6067   92.0087   10.6566 C.3     1  UNL1        0.0077
@<TRIPOS>BOND
     1    15    16    1
     2    16     9    1
     3     9    10   ar
     4    10    11   ar
     5    11    12   ar
     6    12    13   ar
     7    13    14   ar
     8    14     1    1
     9     1     2    1
    10     2    28    1
    11    28    29    2
    12    28    30    1
    13    30    31    1
    14    30    32    1
    15    30    33    1
    16     2     3    2
    17     3     4    1
    18     3     5    1
    19     5     6    2
    20     5     7   am
    21     7    17    1
    22    17    18   ar
    23    18    19   ar
    24    19    20   ar
    25    20    23    1
    26    23    24   ar
    27    24    25   ar
    28    25    26   ar
    29    26    27   ar
    30    20    21   ar
    31    21    22   ar
    32    14     9   ar
    33     7     1    1
    34    22    17   ar
    35    27    23   ar
    36     4     8    1
@<TRIPOS>MOLECULE
*****
 33 36 0 0 0
SMALL
GASTEIGER

@<TRIPOS>ATOM
      1 C          62.8988   84.9879   12.8647 C.3     1  UNL1        0.1338
      2 C          62.5787   83.7238   13.6061 C.2     1  UNL1        0.0732
      3 C          62.8306   83.9656   15.0649 C.2     1  UNL1        0.1887
      4 O          62.6402   82.9688   16.1696 O.2     1  UNL1       -0.5020
      5 C          63.3065   85.3791   15.2251 C.2     1  UNL1        0.2869
      6 O          63.6754   86.0440   16.5181 O.2     1  UNL1       -0.2662
      7 N          63.3486   86.0109   13.8654 N.am    1  UNL1       -0.2463
      8 H          62.3374   82.1041   15.9733 H       1  UNL1        0.2924
      9 C          61.7459   86.1184   10.8294 C.ar    1  UNL1        0.1366
     10 C          61.6356   86.3235    9.3476 C.ar    1  UNL1        0.0366
     11 C          62.5680   85.6032    8.4193 C.ar    1  UNL1        0.0031
     12 C          63.6106   84.6777    8.9728 C.ar    1  UNL1       -0.0001
     13 C          63.7209   84.4726   10.4546 C.ar    1  UNL1        0.0007
     14 C          62.7886   85.1930   11.3829 C.ar    1  UNL1        0.0344
     15 C          60.0125   88.0052   11.2600 C.3     1  UNL1        0.2525
     16 O          60.8135   86.8388   11.7578 O.3     1  UNL1       -0.4717
     17 C          63.7671   87.4185   13.5598 C.ar    1  UNL1        0.0548
     18 C          64.6417   88.1666   14.5218 C.ar    1  UNL1        0.0149
     19 C          65.0602   89.5742   14.2162 C.ar    1  UNL1        0.0013
     20 C          64.6039   90.2339   12.9487 C.ar    1  UNL1        0.0006
     21 C          63.7292   89.4859   11.9866 C.ar    1  UNL1        0.0013
     22 C          63.3108   88.0782   12.2923 C.ar    1  UNL1        0.0149
     23 C          65.0224   91.6416   12.6432 C.ar    1  UNL1        0.0070
     24 C          64.7362   92.3910   11.3757 C.ar    1  UNL1        0.0075
     25 C          65.3374   93.7596   11.5006 C.ar    1  UNL1        0.0355
     26 S          65.9952   93.8559   12.8453 S.2     1  UNL1       -0.0859
     27 C          65.8004   92.5469   13.5513 C.ar    1  UNL1        0.0354
     28 C          62.0921   82.4429   12.9959 C.2     1  UNL1        0.1732
     29 O          61.3051   82.1468   11.9397 O.2     1  UNL1       -0.2915
     30 C          62.4945   81.1271   13.5932 C.3     1  UNL1        0.0554
     31 C          61.0821   80.8995   14.0436 C.3     1  UNL1        0.0077
     32 C          63.9071   81.3547   13.1427 C.3     1  UNL1        0.0077
     33 C          62.8970   79.8113   14.1904 C.3     1  UNL1        0.0077
@<TRIPOS>BOND
     1    15    16    1
     2    16     9    1
     3     9    10   ar
     4    10    11   ar
     5    11    12   ar
     6    12    13   ar
     7    13    14   ar
     8    14     1    1
     9     1     2    1
    10     2    28    1
    11    28    29    2
    12    28    30    1
    13    30    31    1
    14    30    32    1
    15    30    33    1
    16     2     3    2
    17     3     4    1
    18     3     5    1
    19     5     6    2
    20     5     7   am
    21     7    17    1
    22    17    18   ar
    23    18    19   ar
    24    19    20   ar
    25    20    23    1
    26    23    24   ar
    27    24    25   ar
    28    25    26   ar
    29    26    27   ar
    30    20    21   ar
    31    21    22   ar
    32    14     9   ar
    33     7     1    1
    34    22    17   ar
    35    27    23   ar
    36     4     8    1
@<TRIPOS>MOLECULE
*****
 33 36 0 0 0
SMALL
GASTEIGER

@<TRIPOS>ATOM
      1 C          62.8826   84.9596   12.9582 C.3     1  UNL1        0.1338
      2 C          62.5899   83.6534   13.6350 C.2     1  UNL1        0.0732
      3 C          62.9489   83.7920   15.0848 C.2     1  UNL1        0.1887
      4 O          62.8166   82.7259   16.1317 O.2     1  UNL1       -0.5020
      5 C          63.4635   85.1838   15.3040 C.2     1  UNL1        0.2869
      6 O          63.9361   85.7539   16.6085 O.2     1  UNL1       -0.2662
      7 N          63.4226   85.9055   13.9896 N.am    1  UNL1       -0.2463
      8 H          62.4832   81.8812   15.9007 H       1  UNL1        0.2924
      9 C          63.4840   84.5547   10.4632 C.ar    1  UNL1        0.1366
     10 C          63.2738   84.8613    9.0101 C.ar    1  UNL1        0.0366
     11 C          62.2519   85.8793    8.5985 C.ar    1  UNL1        0.0031
     12 C          61.4402   86.5907    9.6402 C.ar    1  UNL1       -0.0001
     13 C          61.6505   86.2842   11.0934 C.ar    1  UNL1        0.0007
     14 C          62.6723   85.2662   11.5049 C.ar    1  UNL1        0.0344
     15 C          64.5976   82.2290   10.1458 C.3     1  UNL1        0.2525
     16 O          64.5059   83.5367   10.8748 O.3     1  UNL1       -0.4717
     17 C          63.8470   87.3239   13.7490 C.ar    1  UNL1        0.0548
     18 C          63.3992   88.0408   12.5099 C.ar    1  UNL1        0.0149
     19 C          63.8237   89.4592   12.2692 C.ar    1  UNL1        0.0013
     20 C          64.6959   90.1608   13.2677 C.ar    1  UNL1        0.0006
     21 C          65.1437   89.4439   14.5070 C.ar    1  UNL1        0.0013
     22 C          64.7192   88.0254   14.7475 C.ar    1  UNL1        0.0149
     23 C          65.1203   91.5792   13.0271 C.ar    1  UNL1        0.0070
     24 C          64.9095   92.3603   11.7640 C.ar    1  UNL1        0.0075
     25 C          65.4889   93.7294   11.9635 C.ar    1  UNL1        0.0355
     26 S          66.0580   93.7944   13.3500 S.2     1  UNL1       -0.0859
     27 C          65.8301   92.4654   14.0072 C.ar    1  UNL1        0.0354
     28 C          62.0355   82.4245   12.9776 C.2     1  UNL1        0.1732
     29 O          61.3258   82.2027   11.8507 O.2     1  UNL1       -0.2915
     30 C          62.2440   81.0787   13.6063 C.3     1  UNL1        0.0554
     31 C          60.7952   81.0345   13.9923 C.3     1  UNL1        0.0077
     32 C          63.6928   81.1227   13.2202 C.3     1  UNL1        0.0077
     33 C          62.4525   79.7328   14.2349 C.3     1  UNL1        0.0077
@<TRIPOS>BOND
     1    15    16    1
     2    16     9    1
     3     9    10   ar
     4    10    11   ar
     5    11    12   ar
     6    12    13   ar
     7    13    14   ar
     8    14     1    1
     9     1     2    1
    10     2    28    1
    11    28    29    2
    12    28    30    1
    13    30    31    1
    14    30    32    1
    15    30    33    1
    16     2     3    2
    17     3     4    1
    18     3     5    1
    19     5     6    2
    20     5     7   am
    21     7    17    1
    22    17    18   ar
    23    18    19   ar
    24    19    20   ar
    25    20    23    1
    26    23    24   ar
    27    24    25   ar
    28    25    26   ar
    29    26    27   ar
    30    20    21   ar
    31    21    22   ar
    32    14     9   ar
    33     7     1    1
    34    22    17   ar
    35    27    23   ar
    36     4     8    1
