@<TRIPOS>MOLECULE
*****
 33 37 0 0 0
SMALL
GASTEIGER

@<TRIPOS>ATOM
      1 C          61.2452   86.4200    9.6877 C.ar    1  UNL1        0.0436
      2 C          60.6157   85.9869    8.3969 C.ar    1  UNL1        0.0142
      3 C          59.8227   86.9663    7.5835 C.ar    1  UNL1        0.0010
      4 C          59.6592   88.3789    8.0608 C.ar    1  UNL1       -0.0032
      5 C          60.2887   88.8121    9.3515 C.ar    1  UNL1       -0.0091
      6 C          61.0817   87.8327   10.1650 C.ar    1  UNL1       -0.0101
      7 C          61.7113   88.2658   11.4558 C.3     1  UNL1        0.0444
      8 C          61.5478   89.6784   11.9331 C.3     1  UNL1        0.0749
      9 N          60.7547   90.6579   11.1195 N.3     1  UNL1       -0.2934
     10 C          60.1252   90.2247    9.8288 C.3     1  UNL1        0.0954
     11 H          61.3814   91.4311   10.8965 H       1  UNL1        0.1236
     12 C          64.6509   82.5044    9.9509 C.3     1  UNL1        0.0191
     13 C          63.7411   83.4827   10.6328 C.3     1  UNL1        0.0774
     14 C          62.9481   84.4622    9.8193 C.3     1  UNL1        0.1067
     15 N          62.0383   85.4406   10.5012 N.pl3   1  UNL1       -0.3050
     16 C          61.9215   85.4395   11.9967 C.3     1  UNL1        0.1067
     17 C          62.7145   84.4601   12.8102 C.3     1  UNL1        0.0774
     18 C          62.5977   84.4591   14.3056 C.3     1  UNL1        0.0191
     19 N          63.6243   83.4817   12.1283 N.3     1  UNL1       -0.2709
     20 C          64.4173   82.5023   12.9418 C.3     1  UNL1        0.0897
     21 C          62.1772   90.1116   13.2238 C.3     1  UNL1        0.0886
     22 N          63.6695   90.0915   13.3743 N.3     1  UNL1       -0.2667
     23 C          64.3389   88.9365   14.0585 C.3     1  UNL1        0.0899
     24 C          64.4925   91.2264   12.8407 C.3     1  UNL1        0.0978
     25 C          64.3937   91.6089   11.3936 C.3     1  UNL1        0.0224
     26 C          65.2167   92.7438   10.8600 C.3     1  UNL1        0.0065
     27 C          66.1384   93.4961   11.7734 C.3     1  UNL1        0.0277
     28 C          66.2372   93.1137   13.2204 C.ar    1  UNL1       -0.0073
     29 C          67.1590   93.8661   14.1338 C.ar    1  UNL1       -0.0015
     30 C          67.2577   93.4835   15.5809 C.ar    1  UNL1        0.0203
     31 C          66.4348   92.3487   16.1145 C.ar    1  UNL1        0.0985
     32 N          65.5130   91.5963   15.2011 N.ar    1  UNL1       -0.2471
     33 C          65.4142   91.9788   13.7541 C.ar    1  UNL1        0.0695
@<TRIPOS>BOND
     1    13    12    1
     2    13    14    1
     3    14    15    1
     4    15     1    1
     5     1     2   ar
     6     2     3   ar
     7     3     4   ar
     8     4     5   ar
     9     5     6   ar
    10     6     7    1
    11     7     8    1
    12     8    21    1
    13    21    22    1
    14    22    23    1
    15    24    22    1
    16    24    25    1
    17    25    26    1
    18    26    27    1
    19    27    28    1
    20    28    29   ar
    21    29    30   ar
    22    30    31   ar
    23    31    32   ar
    24    32    33   ar
    25     8     9    1
    26     9    10    1
    27    15    16    1
    28    16    17    1
    29    17    18    1
    30    17    19    1
    31    19    20    1
    32    19    13    1
    33     6     1   ar
    34    33    24    1
    35    10     5    1
    36    33    28   ar
    37     9    11    1
@<TRIPOS>MOLECULE
*****
 33 37 0 0 0
SMALL
GASTEIGER

@<TRIPOS>ATOM
      1 C          61.2629   86.4078    9.6867 C.ar    1  UNL1        0.0436
      2 C          60.6383   85.9756    8.3933 C.ar    1  UNL1        0.0142
      3 C          59.8470   86.9552    7.5784 C.ar    1  UNL1        0.0010
      4 C          59.6801   88.3670    8.0570 C.ar    1  UNL1       -0.0032
      5 C          60.3047   88.7991    9.3505 C.ar    1  UNL1       -0.0091
      6 C          61.0961   87.8195   10.1654 C.ar    1  UNL1       -0.0101
      7 C          61.7206   88.2517   11.4589 C.3     1  UNL1        0.0444
      8 C          61.5538   89.6634   11.9376 C.3     1  UNL1        0.0749
      9 N          60.7624   90.6431   11.1226 N.3     1  UNL1       -0.2934
     10 C          60.1379   90.2109    9.8291 C.3     1  UNL1        0.0954
     11 H          61.3890   91.4173   10.9029 H       1  UNL1        0.1236
     12 C          62.6057   84.4453   14.3069 C.3     1  UNL1        0.0191
     13 C          62.7257   84.4469   12.8118 C.3     1  UNL1        0.0774
     14 C          61.9343   85.4265   11.9968 C.3     1  UNL1        0.1067
     15 N          62.0543   85.4281   10.5017 N.pl3   1  UNL1       -0.3050
     16 C          62.9657   84.4501    9.8214 C.3     1  UNL1        0.1067
     17 C          63.7571   83.4705   10.6362 C.3     1  UNL1        0.0774
     18 C          64.6686   82.4925    9.9559 C.3     1  UNL1        0.0191
     19 N          63.6371   83.4689   12.1315 N.3     1  UNL1       -0.2709
     20 C          64.4285   82.4893   12.9463 C.3     1  UNL1        0.0897
     21 C          62.1784   90.0956   13.2310 C.3     1  UNL1        0.0886
     22 N          63.6701   90.0761   13.3870 N.3     1  UNL1       -0.2667
     23 C          64.3358   88.9301   14.0896 C.3     1  UNL1        0.0899
     24 C          64.4961   91.2026   12.8405 C.3     1  UNL1        0.0978
     25 C          64.4092   91.5594   11.3861 C.3     1  UNL1        0.0224
     26 C          65.2352   92.6859   10.8396 C.3     1  UNL1        0.0065
     27 C          66.1481   93.4556   11.7474 C.3     1  UNL1        0.0277
     28 C          66.2350   93.0989   13.2017 C.ar    1  UNL1       -0.0073
     29 C          67.1479   93.8686   14.1095 C.ar    1  UNL1       -0.0015
     30 C          67.2348   93.5118   15.5639 C.ar    1  UNL1        0.0203
     31 C          66.4088   92.3853   16.1105 C.ar    1  UNL1        0.0985
     32 N          65.4959   91.6156   15.2027 N.ar    1  UNL1       -0.2471
     33 C          65.4090   91.9723   13.7483 C.ar    1  UNL1        0.0695
@<TRIPOS>BOND
     1    13    12    1
     2    13    14    1
     3    14    15    1
     4    15     1    1
     5     1     2   ar
     6     2     3   ar
     7     3     4   ar
     8     4     5   ar
     9     5     6   ar
    10     6     7    1
    11     7     8    1
    12     8    21    1
    13    21    22    1
    14    22    23    1
    15    24    22    1
    16    24    25    1
    17    25    26    1
    18    26    27    1
    19    27    28    1
    20    28    29   ar
    21    29    30   ar
    22    30    31   ar
    23    31    32   ar
    24    32    33   ar
    25     8     9    1
    26     9    10    1
    27    15    16    1
    28    16    17    1
    29    17    18    1
    30    17    19    1
    31    19    20    1
    32    19    13    1
    33     6     1   ar
    34    33    24    1
    35    10     5    1
    36    33    28   ar
    37     9    11    1
@<TRIPOS>MOLECULE
*****
 33 37 0 0 0
SMALL
GASTEIGER

@<TRIPOS>ATOM
      1 C          61.3853   86.5428    9.8581 C.ar    1  UNL1        0.0436
      2 C          60.7886   86.1800    8.5306 C.ar    1  UNL1        0.0142
      3 C          60.0608   87.2166    7.7271 C.ar    1  UNL1        0.0010
      4 C          59.9297   88.6160    8.2510 C.ar    1  UNL1       -0.0032
      5 C          60.5264   88.9788    9.5785 C.ar    1  UNL1       -0.0091
      6 C          61.2542   87.9422   10.3821 C.ar    1  UNL1       -0.0101
      7 C          61.8509   88.3050   11.7097 C.3     1  UNL1        0.0444
      8 C          61.7198   89.7044   12.2336 C.3     1  UNL1        0.0749
      9 N          60.9919   90.7410   11.4300 N.3     1  UNL1       -0.2934
     10 C          60.3953   90.3782   10.1025 C.3     1  UNL1        0.0954
     11 H          61.6532   91.4984   11.2585 H       1  UNL1        0.1236
     12 C          64.5726   82.4453   10.0858 C.3     1  UNL1        0.0191
     13 C          63.7068   83.4574   10.7756 C.3     1  UNL1        0.0774
     14 C          62.9789   84.4940    9.9720 C.3     1  UNL1        0.1067
     15 N          62.1131   85.5062   10.6618 N.pl3   1  UNL1       -0.3050
     16 C          61.9751   85.4818   12.1552 C.3     1  UNL1        0.1067
     17 C          62.7029   84.4453   12.9589 C.3     1  UNL1        0.0774
     18 C          62.5648   84.4209   14.4523 C.3     1  UNL1        0.0191
     19 N          63.5687   83.4330   12.2691 N.3     1  UNL1       -0.2709
     20 C          64.2965   82.3965   13.0727 C.3     1  UNL1        0.0897
     21 C          62.3165   90.0672   13.5611 C.3     1  UNL1        0.0886
     22 N          63.7759   89.8331   13.8166 N.3     1  UNL1       -0.2667
     23 C          64.3084   88.4329   13.8951 C.3     1  UNL1        0.0899
     24 C          64.7028   90.9991   13.9936 C.3     1  UNL1        0.0978
     25 C          65.3124   91.2756   15.3360 C.3     1  UNL1        0.0224
     26 C          66.2393   92.4415   15.5130 C.3     1  UNL1        0.0065
     27 C          66.5566   93.3310   14.3476 C.3     1  UNL1        0.0277
     28 C          65.9470   93.0546   13.0052 C.ar    1  UNL1       -0.0073
     29 C          66.2643   93.9441   11.8399 C.ar    1  UNL1       -0.0015
     30 C          65.6547   93.6676   10.4975 C.ar    1  UNL1        0.0203
     31 C          64.7278   92.5016   10.3205 C.ar    1  UNL1        0.0985
     32 N          64.4105   91.6121   11.4858 N.ar    1  UNL1       -0.2471
     33 C          65.0201   91.8886   12.8282 C.ar    1  UNL1        0.0695
@<TRIPOS>BOND
     1    13    12    1
     2    13    14    1
     3    14    15    1
     4    15     1    1
     5     1     2   ar
     6     2     3   ar
     7     3     4   ar
     8     4     5   ar
     9     5     6   ar
    10     6     7    1
    11     7     8    1
    12     8    21    1
    13    21    22    1
    14    22    23    1
    15    24    22    1
    16    24    25    1
    17    25    26    1
    18    26    27    1
    19    27    28    1
    20    28    29   ar
    21    29    30   ar
    22    30    31   ar
    23    31    32   ar
    24    32    33   ar
    25     8     9    1
    26     9    10    1
    27    15    16    1
    28    16    17    1
    29    17    18    1
    30    17    19    1
    31    19    20    1
    32    19    13    1
    33     6     1   ar
    34    33    24    1
    35    10     5    1
    36    33    28   ar
    37     9    11    1
@<TRIPOS>MOLECULE
*****
 33 37 0 0 0
SMALL
GASTEIGER

@<TRIPOS>ATOM
      1 C          61.4799   86.6086   10.0462 C.ar    1  UNL1        0.0436
      2 C          60.8747   86.2978    8.7094 C.ar    1  UNL1        0.0142
      3 C          60.1779   87.3755    7.9328 C.ar    1  UNL1        0.0010
      4 C          60.0864   88.7639    8.4930 C.ar    1  UNL1       -0.0032
      5 C          60.6916   89.0747    9.8298 C.ar    1  UNL1       -0.0091
      6 C          61.3884   87.9970   10.6064 C.ar    1  UNL1       -0.0101
      7 C          61.9936   88.3078   11.9433 C.3     1  UNL1        0.0444
      8 C          61.9021   89.6962   12.5035 C.3     1  UNL1        0.0749
      9 N          61.2053   90.7739   11.7268 N.3     1  UNL1       -0.2934
     10 C          60.6001   90.4631   10.3900 C.3     1  UNL1        0.0954
     11 H          61.8882   91.5163   11.5754 H       1  UNL1        0.1236
     12 C          62.5575   84.3085   14.5793 C.3     1  UNL1        0.0191
     13 C          62.7155   84.3809   13.0894 C.3     1  UNL1        0.0774
     14 C          62.0187   85.4585   12.3127 C.3     1  UNL1        0.1067
     15 N          62.1767   85.5309   10.8229 N.pl3   1  UNL1       -0.3050
     16 C          63.0314   84.5256   10.1096 C.3     1  UNL1        0.1067
     17 C          63.7282   83.4480   10.8862 C.3     1  UNL1        0.0774
     18 C          64.5830   82.4427   10.1729 C.3     1  UNL1        0.0191
     19 N          63.5703   83.3756   12.3761 N.3     1  UNL1       -0.2709
     20 C          64.2670   82.2979   13.1527 C.3     1  UNL1        0.0897
     21 C          62.5073   90.0070   13.8403 C.3     1  UNL1        0.0886
     22 N          63.9841   89.8486   14.0501 N.3     1  UNL1       -0.2667
     23 C          64.5802   88.4784   14.1814 C.3     1  UNL1        0.0899
     24 C          64.8647   91.0603   14.1287 C.3     1  UNL1        0.0978
     25 C          65.5164   91.4309   15.4279 C.3     1  UNL1        0.0224
     26 C          66.3970   92.6426   15.5065 C.3     1  UNL1        0.0065
     27 C          66.6260   93.4838   14.2858 C.3     1  UNL1        0.0277
     28 C          65.9744   93.1132   12.9866 C.ar    1  UNL1       -0.0073
     29 C          66.2034   93.9544   11.7659 C.ar    1  UNL1       -0.0015
     30 C          65.5517   93.5838   10.4667 C.ar    1  UNL1        0.0203
     31 C          64.6711   92.3721   10.3881 C.ar    1  UNL1        0.0985
     32 N          64.4421   91.5309   11.6088 N.ar    1  UNL1       -0.2471
     33 C          65.0937   91.9014   12.9080 C.ar    1  UNL1        0.0695
@<TRIPOS>BOND
     1    13    12    1
     2    13    14    1
     3    14    15    1
     4    15     1    1
     5     1     2   ar
     6     2     3   ar
     7     3     4   ar
     8     4     5   ar
     9     5     6   ar
    10     6     7    1
    11     7     8    1
    12     8    21    1
    13    21    22    1
    14    22    23    1
    15    24    22    1
    16    24    25    1
    17    25    26    1
    18    26    27    1
    19    27    28    1
    20    28    29   ar
    21    29    30   ar
    22    30    31   ar
    23    31    32   ar
    24    32    33   ar
    25     8     9    1
    26     9    10    1
    27    15    16    1
    28    16    17    1
    29    17    18    1
    30    17    19    1
    31    19    20    1
    32    19    13    1
    33     6     1   ar
    34    33    24    1
    35    10     5    1
    36    33    28   ar
    37     9    11    1
@<TRIPOS>MOLECULE
*****
 33 37 0 0 0
SMALL
GASTEIGER

@<TRIPOS>ATOM
      1 C          62.6699   84.1901   12.2575 C.ar    1  UNL1        0.0436
      2 C          62.4280   82.7100   12.2339 C.ar    1  UNL1        0.0142
      3 C          62.9548   81.8463   13.3413 C.ar    1  UNL1        0.0010
      4 C          63.7234   82.4627   14.4724 C.ar    1  UNL1       -0.0032
      5 C          63.9653   83.9429   14.4960 C.ar    1  UNL1       -0.0091
      6 C          63.4385   84.8066   13.3885 C.ar    1  UNL1       -0.0101
      7 C          63.6803   86.2868   13.4121 C.3     1  UNL1        0.0444
      8 C          64.4489   86.9033   14.5431 C.3     1  UNL1        0.0749
      9 N          64.9757   86.0395   15.6506 N.3     1  UNL1       -0.2934
     10 C          64.7339   84.5593   15.6270 C.3     1  UNL1        0.0954
     11 H          64.5682   86.3906   16.5171 H       1  UNL1        0.1236
     12 C          62.3872   85.3480    7.1998 C.3     1  UNL1        0.0191
     13 C          62.0017   85.6329    8.6212 C.3     1  UNL1        0.0774
     14 C          62.5285   84.7691    9.7287 C.3     1  UNL1        0.1067
     15 N          62.1431   85.0539   11.1500 N.pl3   1  UNL1       -0.3050
     16 C          61.2309   86.2025   11.4640 C.3     1  UNL1        0.1067
     17 C          60.7041   87.0663   10.3566 C.3     1  UNL1        0.0774
     18 C          59.7919   88.2149   10.6705 C.3     1  UNL1        0.0191
     19 N          61.0895   86.7815    8.9351 N.3     1  UNL1       -0.2709
     20 C          60.5627   87.6453    7.8278 C.3     1  UNL1        0.0897
     21 C          64.6908   88.3834   14.5667 C.3     1  UNL1        0.0886
     22 N          63.5842   89.3300   14.2068 N.3     1  UNL1       -0.2667
     23 C          62.4461   89.5500   15.1588 C.3     1  UNL1        0.0899
     24 C          63.6158   90.0566   12.8949 C.3     1  UNL1        0.0978
     25 C          62.7856   89.5663   11.7458 C.3     1  UNL1        0.0224
     26 C          62.8172   90.2929   10.4340 C.3     1  UNL1        0.0065
     27 C          63.6789   91.5099   10.2712 C.3     1  UNL1        0.0277
     28 C          64.5090   92.0002   11.4202 C.ar    1  UNL1       -0.0073
     29 C          65.3707   93.2171   11.2574 C.ar    1  UNL1       -0.0015
     30 C          66.2009   93.7075   12.4066 C.ar    1  UNL1        0.0203
     31 C          66.1694   92.9808   13.7184 C.ar    1  UNL1        0.0985
     32 N          65.3077   91.7639   13.8812 N.ar    1  UNL1       -0.2471
     33 C          64.4775   91.2736   12.7322 C.ar    1  UNL1        0.0695
@<TRIPOS>BOND
     1    13    12    1
     2    13    14    1
     3    14    15    1
     4    15     1    1
     5     1     2   ar
     6     2     3   ar
     7     3     4   ar
     8     4     5   ar
     9     5     6   ar
    10     6     7    1
    11     7     8    1
    12     8    21    1
    13    21    22    1
    14    22    23    1
    15    24    22    1
    16    24    25    1
    17    25    26    1
    18    26    27    1
    19    27    28    1
    20    28    29   ar
    21    29    30   ar
    22    30    31   ar
    23    31    32   ar
    24    32    33   ar
    25     8     9    1
    26     9    10    1
    27    15    16    1
    28    16    17    1
    29    17    18    1
    30    17    19    1
    31    19    20    1
    32    19    13    1
    33     6     1   ar
    34    33    24    1
    35    10     5    1
    36    33    28   ar
    37     9    11    1
@<TRIPOS>MOLECULE
*****
 33 37 0 0 0
SMALL
GASTEIGER

@<TRIPOS>ATOM
      1 C          62.6338   85.7155   11.6849 C.ar    1  UNL1        0.0436
      2 C          62.8281   84.2303   11.6045 C.ar    1  UNL1        0.0142
      3 C          63.6446   83.5234   12.6455 C.ar    1  UNL1        0.0010
      4 C          64.2667   84.3016   13.7668 C.ar    1  UNL1       -0.0032
      5 C          64.0724   85.7868   13.8472 C.ar    1  UNL1       -0.0091
      6 C          63.2559   86.4937   12.8062 C.ar    1  UNL1       -0.0101
      7 C          63.0615   87.9790   12.8866 C.3     1  UNL1        0.0444
      8 C          63.6836   88.7572   14.0079 C.3     1  UNL1        0.0749
      9 N          64.5001   88.0501   15.0489 N.3     1  UNL1       -0.2934
     10 C          64.6945   86.5650   14.9685 C.3     1  UNL1        0.0954
     11 H          64.0594   88.2412   15.9486 H       1  UNL1        0.1236
     12 C          60.2030   85.6943    7.0924 C.3     1  UNL1        0.0191
     13 C          60.6019   86.4119    8.3477 C.3     1  UNL1        0.0774
     14 C          61.4184   85.7049    9.3887 C.3     1  UNL1        0.1067
     15 N          61.8173   86.4225   10.6440 N.pl3   1  UNL1       -0.3050
     16 C          61.3997   87.8472   10.8584 C.3     1  UNL1        0.1067
     17 C          60.5832   88.5542    9.8175 C.3     1  UNL1        0.0774
     18 C          60.1657   89.9789   10.0319 C.3     1  UNL1        0.0191
     19 N          60.1843   87.8366    8.5621 N.3     1  UNL1       -0.2709
     20 C          59.3678   88.5436    7.5213 C.3     1  UNL1        0.0897
     21 C          63.4893   90.2423   14.0883 C.3     1  UNL1        0.0886
     22 N          64.3893   91.0706   14.9566 N.3     1  UNL1       -0.2667
     23 C          63.9498   91.4593   16.3371 C.3     1  UNL1        0.0899
     24 C          65.7289   91.5102   14.4444 C.3     1  UNL1        0.0978
     25 C          66.9210   91.4976   15.3549 C.3     1  UNL1        0.0224
     26 C          68.2605   91.9372   14.8427 C.3     1  UNL1        0.0065
     27 C          68.4080   92.3893   13.4201 C.3     1  UNL1        0.0277
     28 C          67.2161   92.4019   12.5096 C.ar    1  UNL1       -0.0073
     29 C          67.3636   92.8540   11.0870 C.ar    1  UNL1       -0.0015
     30 C          66.1715   92.8665   10.1766 C.ar    1  UNL1        0.0203
     31 C          64.8320   92.4270   10.6887 C.ar    1  UNL1        0.0985
     32 N          64.6844   91.9748   12.1113 N.ar    1  UNL1       -0.2471
     33 C          65.8764   91.9623   13.0218 C.ar    1  UNL1        0.0695
@<TRIPOS>BOND
     1    13    12    1
     2    13    14    1
     3    14    15    1
     4    15     1    1
     5     1     2   ar
     6     2     3   ar
     7     3     4   ar
     8     4     5   ar
     9     5     6   ar
    10     6     7    1
    11     7     8    1
    12     8    21    1
    13    21    22    1
    14    22    23    1
    15    24    22    1
    16    24    25    1
    17    25    26    1
    18    26    27    1
    19    27    28    1
    20    28    29   ar
    21    29    30   ar
    22    30    31   ar
    23    31    32   ar
    24    32    33   ar
    25     8     9    1
    26     9    10    1
    27    15    16    1
    28    16    17    1
    29    17    18    1
    30    17    19    1
    31    19    20    1
    32    19    13    1
    33     6     1   ar
    34    33    24    1
    35    10     5    1
    36    33    28   ar
    37     9    11    1
@<TRIPOS>MOLECULE
*****
 33 37 0 0 0
SMALL
GASTEIGER

@<TRIPOS>ATOM
      1 C          61.4099   86.4757   10.0087 C.ar    1  UNL1        0.0436
      2 C          60.5447   86.1032    8.8414 C.ar    1  UNL1        0.0142
      3 C          59.8017   87.1671    8.0890 C.ar    1  UNL1        0.0010
      4 C          59.9239   88.6034    8.5040 C.ar    1  UNL1       -0.0032
      5 C          60.7891   88.9758    9.6713 C.ar    1  UNL1       -0.0091
      6 C          61.5321   87.9119   10.4236 C.ar    1  UNL1       -0.0101
      7 C          62.3974   88.2843   11.5910 C.3     1  UNL1        0.0444
      8 C          62.5196   89.7206   12.0060 C.3     1  UNL1        0.0749
      9 N          61.7765   90.7845   11.2536 N.3     1  UNL1       -0.2934
     10 C          60.9113   90.4121   10.0862 C.3     1  UNL1        0.0954
     11 H          62.4750   91.4408   10.9048 H       1  UNL1        0.1236
     12 C          62.6675   84.1858   14.5004 C.3     1  UNL1        0.0191
     13 C          62.7818   84.2668   13.0070 C.3     1  UNL1        0.0774
     14 C          62.0387   85.3307   12.2545 C.3     1  UNL1        0.1067
     15 N          62.1530   85.4118   10.7611 N.pl3   1  UNL1       -0.3050
     16 C          63.0103   84.4290   10.0201 C.3     1  UNL1        0.1067
     17 C          63.7533   83.3651   10.7724 C.3     1  UNL1        0.0774
     18 C          64.6106   82.3824   10.0314 C.3     1  UNL1        0.0191
     19 N          63.6391   83.2840   12.2659 N.3     1  UNL1       -0.2709
     20 C          64.3821   82.2202   13.0183 C.3     1  UNL1        0.0897
     21 C          63.3848   90.0930   13.1733 C.3     1  UNL1        0.0886
     22 N          64.4116   91.1771   13.0302 N.3     1  UNL1       -0.2667
     23 C          64.6708   91.7918   11.6867 C.3     1  UNL1        0.0899
     24 C          65.1791   91.6463   14.2304 C.3     1  UNL1        0.0978
     25 C          64.4657   91.8970   15.5259 C.3     1  UNL1        0.0224
     26 C          65.2332   92.3662   16.7262 C.3     1  UNL1        0.0065
     27 C          66.7142   92.5849   16.6310 C.3     1  UNL1        0.0277
     28 C          67.4276   92.3343   15.3355 C.ar    1  UNL1       -0.0073
     29 C          68.9085   92.5530   15.2403 C.ar    1  UNL1       -0.0015
     30 C          69.6219   92.3023   13.9448 C.ar    1  UNL1        0.0203
     31 C          68.8543   91.8330   12.7446 C.ar    1  UNL1        0.0985
     32 N          67.3734   91.6144   12.8398 N.ar    1  UNL1       -0.2471
     33 C          66.6600   91.8650   14.1352 C.ar    1  UNL1        0.0695
@<TRIPOS>BOND
     1    13    12    1
     2    13    14    1
     3    14    15    1
     4    15     1    1
     5     1     2   ar
     6     2     3   ar
     7     3     4   ar
     8     4     5   ar
     9     5     6   ar
    10     6     7    1
    11     7     8    1
    12     8    21    1
    13    21    22    1
    14    22    23    1
    15    24    22    1
    16    24    25    1
    17    25    26    1
    18    26    27    1
    19    27    28    1
    20    28    29   ar
    21    29    30   ar
    22    30    31   ar
    23    31    32   ar
    24    32    33   ar
    25     8     9    1
    26     9    10    1
    27    15    16    1
    28    16    17    1
    29    17    18    1
    30    17    19    1
    31    19    20    1
    32    19    13    1
    33     6     1   ar
    34    33    24    1
    35    10     5    1
    36    33    28   ar
    37     9    11    1
@<TRIPOS>MOLECULE
*****
 33 37 0 0 0
SMALL
GASTEIGER

@<TRIPOS>ATOM
      1 C          63.1674   85.1063   11.8758 C.ar    1  UNL1        0.0436
      2 C          63.5788   83.6835   12.1130 C.ar    1  UNL1        0.0142
      3 C          64.3449   83.3207   13.3505 C.ar    1  UNL1        0.0010
      4 C          64.6997   84.3808   14.3507 C.ar    1  UNL1       -0.0032
      5 C          64.2883   85.8036   14.1135 C.ar    1  UNL1       -0.0091
      6 C          63.5221   86.1663   12.8760 C.ar    1  UNL1       -0.0101
      7 C          63.1107   87.5892   12.6387 C.3     1  UNL1        0.0444
      8 C          63.4655   88.6493   13.6389 C.3     1  UNL1        0.0749
      9 N          64.2317   88.2864   14.8765 N.3     1  UNL1       -0.2934
     10 C          64.6431   86.8636   15.1137 C.3     1  UNL1        0.0954
     11 H          63.6552   88.5627   15.6713 H       1  UNL1        0.1236
     12 C          62.4812   84.7391    6.7382 C.3     1  UNL1        0.0191
     13 C          62.0581   85.2856    8.0695 C.3     1  UNL1        0.0774
     14 C          62.8243   84.9227    9.3070 C.3     1  UNL1        0.1067
     15 N          62.4012   85.4691   10.6383 N.pl3   1  UNL1       -0.3050
     16 C          61.2119   86.3784   10.7321 C.3     1  UNL1        0.1067
     17 C          60.4457   86.7412    9.4947 C.3     1  UNL1        0.0774
     18 C          59.2564   87.6505    9.5886 C.3     1  UNL1        0.0191
     19 N          60.8688   86.1948    8.1633 N.3     1  UNL1       -0.2709
     20 C          60.1026   86.5576    6.9259 C.3     1  UNL1        0.0897
     21 C          63.0541   90.0721   13.4017 C.3     1  UNL1        0.0886
     22 N          63.3482   90.7283   12.0854 N.3     1  UNL1       -0.2667
     23 C          62.5104   90.4070   10.8833 C.3     1  UNL1        0.0899
     24 C          64.4802   91.7059   11.9710 C.3     1  UNL1        0.0978
     25 C          64.8691   92.2493   10.6281 C.3     1  UNL1        0.0224
     26 C          66.0010   93.2269   10.5137 C.3     1  UNL1        0.0065
     27 C          66.7441   93.6610   11.7423 C.3     1  UNL1        0.0277
     28 C          66.3552   93.1176   13.0852 C.ar    1  UNL1       -0.0073
     29 C          67.0983   93.5517   14.3138 C.ar    1  UNL1       -0.0015
     30 C          66.7094   93.0082   15.6567 C.ar    1  UNL1        0.0203
     31 C          65.5775   92.0307   15.7711 C.ar    1  UNL1        0.0985
     32 N          64.8344   91.5966   14.5425 N.ar    1  UNL1       -0.2471
     33 C          65.2232   92.1400   13.1996 C.ar    1  UNL1        0.0695
@<TRIPOS>BOND
     1    13    12    1
     2    13    14    1
     3    14    15    1
     4    15     1    1
     5     1     2   ar
     6     2     3   ar
     7     3     4   ar
     8     4     5   ar
     9     5     6   ar
    10     6     7    1
    11     7     8    1
    12     8    21    1
    13    21    22    1
    14    22    23    1
    15    24    22    1
    16    24    25    1
    17    25    26    1
    18    26    27    1
    19    27    28    1
    20    28    29   ar
    21    29    30   ar
    22    30    31   ar
    23    31    32   ar
    24    32    33   ar
    25     8     9    1
    26     9    10    1
    27    15    16    1
    28    16    17    1
    29    17    18    1
    30    17    19    1
    31    19    20    1
    32    19    13    1
    33     6     1   ar
    34    33    24    1
    35    10     5    1
    36    33    28   ar
    37     9    11    1
@<TRIPOS>MOLECULE
*****
 33 37 0 0 0
SMALL
GASTEIGER

@<TRIPOS>ATOM
      1 C          62.1564   87.7346   11.0752 C.ar    1  UNL1        0.0436
      2 C          61.0971   87.3611   10.0810 C.ar    1  UNL1        0.0142
      3 C          60.5629   88.3920    9.1314 C.ar    1  UNL1        0.0010
      4 C          61.0878   89.7964    9.1760 C.ar    1  UNL1       -0.0032
      5 C          62.1471   90.1699   10.1703 C.ar    1  UNL1       -0.0091
      6 C          62.6813   89.1390   11.1198 C.ar    1  UNL1       -0.0101
      7 C          63.7406   89.5125   12.1141 C.3     1  UNL1        0.0444
      8 C          64.2656   90.9169   12.1587 C.3     1  UNL1        0.0749
      9 N          63.7312   91.9479   11.2091 N.3     1  UNL1       -0.2934
     10 C          62.6720   91.5743   10.2149 C.3     1  UNL1        0.0954
     11 H          64.5270   92.2964   10.6746 H       1  UNL1        0.1236
     12 C          62.6428   82.7658   12.5156 C.3     1  UNL1        0.0191
     13 C          62.9339   84.2192   12.7450 C.3     1  UNL1        0.0774
     14 C          62.3996   85.2502   11.7954 C.3     1  UNL1        0.1067
     15 N          62.6907   86.7036   12.0248 N.pl3   1  UNL1       -0.3050
     16 C          63.5161   87.1262   13.2038 C.3     1  UNL1        0.1067
     17 C          64.0504   86.0954   14.1534 C.3     1  UNL1        0.0774
     18 C          64.8758   86.5180   15.3325 C.3     1  UNL1        0.0191
     19 N          63.7593   84.6418   13.9241 N.3     1  UNL1       -0.2709
     20 C          64.2936   83.6110   14.8737 C.3     1  UNL1        0.0897
     21 C          65.3248   91.2904   13.1529 C.3     1  UNL1        0.0886
     22 N          66.1782   92.5018   12.9202 N.3     1  UNL1       -0.2667
     23 C          66.3252   93.5341   13.9985 C.3     1  UNL1        0.0899
     24 C          66.8845   92.6810   11.6091 C.3     1  UNL1        0.0978
     25 C          67.8799   91.6581   11.1475 C.3     1  UNL1        0.0224
     26 C          68.5863   91.8372    9.8364 C.3     1  UNL1        0.0065
     27 C          68.2973   93.0392    8.9869 C.3     1  UNL1        0.0277
     28 C          67.3020   94.0620    9.4484 C.ar    1  UNL1       -0.0073
     29 C          67.0130   95.2640    8.5989 C.ar    1  UNL1       -0.0015
     30 C          66.0177   96.2869    9.0605 C.ar    1  UNL1        0.0203
     31 C          65.3113   96.1078   10.3716 C.ar    1  UNL1        0.0985
     32 N          65.6003   94.9058   11.2211 N.ar    1  UNL1       -0.2471
     33 C          66.5956   93.8829   10.7596 C.ar    1  UNL1        0.0695
@<TRIPOS>BOND
     1    13    12    1
     2    13    14    1
     3    14    15    1
     4    15     1    1
     5     1     2   ar
     6     2     3   ar
     7     3     4   ar
     8     4     5   ar
     9     5     6   ar
    10     6     7    1
    11     7     8    1
    12     8    21    1
    13    21    22    1
    14    22    23    1
    15    24    22    1
    16    24    25    1
    17    25    26    1
    18    26    27    1
    19    27    28    1
    20    28    29   ar
    21    29    30   ar
    22    30    31   ar
    23    31    32   ar
    24    32    33   ar
    25     8     9    1
    26     9    10    1
    27    15    16    1
    28    16    17    1
    29    17    18    1
    30    17    19    1
    31    19    20    1
    32    19    13    1
    33     6     1   ar
    34    33    24    1
    35    10     5    1
    36    33    28   ar
    37     9    11    1
