@<TRIPOS>MOLECULE
*****
 34 38 0 0 0
SMALL
GASTEIGER

@<TRIPOS>ATOM
      1 C          60.8474   87.4944    8.9511 C.ar    1  UNL1        0.0291
      2 C          61.0015   88.9730    9.1510 C.ar    1  UNL1        0.0036
      3 C          60.4157   89.9296    8.1550 C.ar    1  UNL1        0.0152
      4 C          59.6758   89.4076    6.9592 C.ar    1  UNL1        0.0593
      5 C          59.5217   87.9289    6.7593 C.ar    1  UNL1        0.0446
      6 C          60.1075   86.9724    7.7553 C.ar    1  UNL1        0.1414
      7 F          59.9534   85.4937    7.5554 F       1  UNL1       -0.2041
      8 C          62.6047   84.6247   11.9388 C.ar    1  UNL1        0.1178
      9 C          62.9469   84.4958   10.4841 C.ar    1  UNL1        0.0221
     10 C          62.3612   85.4524    9.4882 C.ar    1  UNL1        0.0033
     11 C          61.4331   86.5378    9.9470 C.ar    1  UNL1        0.0213
     12 C          61.0909   86.6667   11.4017 C.ar    1  UNL1        0.0990
     13 N          61.6766   85.7102   12.3976 N.ar    1  UNL1       -0.2409
     14 C          63.1905   83.6681   12.9347 C.2     1  UNL1        0.2133
     15 O          62.8747   82.2045   12.8442 O.2     1  UNL1       -0.2877
     16 C          64.0919   84.1751   14.0211 C.3     1  UNL1        0.1781
     17 C          64.6950   87.3339   14.5756 C.3     1  UNL1        0.0719
     18 C          63.8045   86.4490   15.3965 C.ar    1  UNL1        0.1212
     19 N          63.0348   86.8607   16.6164 N.ar    1  UNL1       -0.2293
     20 C          62.2818   85.6632   17.1154 C.ar    1  UNL1        0.1188
     21 C          62.5862   84.5113   16.2039 C.ar    1  UNL1        0.0981
     22 N          63.5273   84.9971   15.1416 N.ar    1  UNL1       -0.3062
     23 N          59.0900   90.3641    5.9633 N.am    1  UNL1       -0.2212
     24 C          59.8616   91.2958    5.0764 C.3     1  UNL1        0.1471
     25 C          58.8783   92.0644    4.2443 C.3     1  UNL1        0.2149
     26 O          57.4989   91.6077    4.6170 O.3     1  UNL1       -0.4342
     27 C          57.6298   90.5568    5.6794 C.2     1  UNL1        0.4088
     28 O          56.4990   89.8269    6.3416 O.2     1  UNL1       -0.2258
     29 C          59.2151   93.1067    3.2196 C.3     1  UNL1        0.1745
     30 N          60.2606   92.8269    2.1809 N.ar    1  UNL1       -0.2264
     31 C          60.0126   92.6008    0.7189 C.ar    1  UNL1        0.1193
     32 C          61.3363   92.3584    0.0563 C.ar    1  UNL1        0.1441
     33 N          62.4024   92.4346    1.1088 N.ar    1  UNL1       -0.1271
     34 N          61.7376   92.7242    2.4219 N.ar    1  UNL1       -0.0636
@<TRIPOS>BOND
     1    17    18    1
     2    18    19   ar
     3    19    20   ar
     4    20    21   ar
     5    21    22   ar
     6    22    16    1
     7    16    14    1
     8    14    15    2
     9    14     8    1
    10     8     9   ar
    11     9    10   ar
    12    10    11   ar
    13    11     1    1
    14     1     2   ar
    15     2     3   ar
    16     3     4   ar
    17     4    23    1
    18    23    24    1
    19    24    25    1
    20    25    29    1
    21    29    30    1
    22    30    31   ar
    23    31    32   ar
    24    32    33   ar
    25    33    34   ar
    26    25    26    1
    27    26    27    1
    28    27    28    2
    29     4     5   ar
    30     5     6   ar
    31     6     7    1
    32    11    12   ar
    33    12    13   ar
    34    22    18   ar
    35    13     8   ar
    36     6     1   ar
    37    27    23   am
    38    34    30   ar
@<TRIPOS>MOLECULE
*****
 34 38 0 0 0
SMALL
GASTEIGER

@<TRIPOS>ATOM
      1 C          62.0295   93.1028    1.8395 C.ar    1  UNL1        0.0291
      2 C          60.6164   93.4900    2.1603 C.ar    1  UNL1        0.0036
      3 C          59.8646   92.7616    3.2348 C.ar    1  UNL1        0.0152
      4 C          60.5261   91.6460    3.9884 C.ar    1  UNL1        0.0593
      5 C          61.9394   91.2588    3.6675 C.ar    1  UNL1        0.0446
      6 C          62.6911   91.9872    2.5931 C.ar    1  UNL1        0.1414
      7 F          64.1043   91.6001    2.2722 F       1  UNL1       -0.2041
      8 C          64.2847   95.2879   -1.3837 C.ar    1  UNL1        0.1178
      9 C          64.9317   95.0375   -0.0538 C.ar    1  UNL1        0.0221
     10 C          64.1800   94.3091    1.0206 C.ar    1  UNL1        0.0033
     11 C          62.7813   93.8312    0.7651 C.ar    1  UNL1        0.0213
     12 C          62.1343   94.0817   -0.5648 C.ar    1  UNL1        0.0990
     13 N          62.8861   94.8100   -1.6392 N.ar    1  UNL1       -0.2409
     14 C          65.0365   96.0163   -2.4582 C.2     1  UNL1        0.2133
     15 O          66.3239   96.7135   -2.1318 O.2     1  UNL1       -0.2877
     16 C          64.5008   96.0475   -3.8589 C.3     1  UNL1        0.1781
     17 C          64.2563   92.8069   -4.1555 C.3     1  UNL1        0.0719
     18 C          65.0283   93.7194   -5.0618 C.ar    1  UNL1        0.1212
     19 N          65.8234   93.3027   -6.2635 N.ar    1  UNL1       -0.2293
     20 C          66.4273   94.5347   -6.8698 C.ar    1  UNL1        0.1188
     21 C          66.0053   95.7129   -6.0428 C.ar    1  UNL1        0.0981
     22 N          65.1407   95.2090   -4.9254 N.ar    1  UNL1       -0.3062
     23 N          59.7745   90.9176    5.0628 N.am    1  UNL1       -0.2212
     24 C          60.3108   89.8062    5.9155 C.3     1  UNL1        0.1471
     25 C          59.2224   89.3744    6.8529 C.3     1  UNL1        0.2149
     26 O          58.0132   90.2190    6.5795 O.3     1  UNL1       -0.4342
     27 C          58.3545   91.1728    5.4732 C.2     1  UNL1        0.4088
     28 O          57.4368   92.2011    4.8813 O.2     1  UNL1       -0.2258
     29 C          59.3249   88.2887    7.8828 C.3     1  UNL1        0.1745
     30 N          59.9035   88.5887    9.2338 N.ar    1  UNL1       -0.2264
     31 C          60.3049   89.9423    9.7402 C.ar    1  UNL1        0.1193
     32 C          60.8317   89.7779   11.1350 C.ar    1  UNL1        0.1441
     33 N          60.7559   88.3226   11.4906 N.ar    1  UNL1       -0.1271
     34 N          60.1822   87.5876   10.3156 N.ar    1  UNL1       -0.0636
@<TRIPOS>BOND
     1    17    18    1
     2    18    19   ar
     3    19    20   ar
     4    20    21   ar
     5    21    22   ar
     6    22    16    1
     7    16    14    1
     8    14    15    2
     9    14     8    1
    10     8     9   ar
    11     9    10   ar
    12    10    11   ar
    13    11     1    1
    14     1     2   ar
    15     2     3   ar
    16     3     4   ar
    17     4    23    1
    18    23    24    1
    19    24    25    1
    20    25    29    1
    21    29    30    1
    22    30    31   ar
    23    31    32   ar
    24    32    33   ar
    25    33    34   ar
    26    25    26    1
    27    26    27    1
    28    27    28    2
    29     4     5   ar
    30     5     6   ar
    31     6     7    1
    32    11    12   ar
    33    12    13   ar
    34    22    18   ar
    35    13     8   ar
    36     6     1   ar
    37    27    23   am
    38    34    30   ar
@<TRIPOS>MOLECULE
*****
 34 38 0 0 0
SMALL
GASTEIGER

@<TRIPOS>ATOM
      1 C          64.0017   87.6367   13.7336 C.ar    1  UNL1        0.0291
      2 C          64.9049   88.1806   14.8006 C.ar    1  UNL1        0.0036
      3 C          65.3520   89.6114   14.7472 C.ar    1  UNL1        0.0152
      4 C          64.8959   90.4984   13.6268 C.ar    1  UNL1        0.0593
      5 C          63.9926   89.9545   12.5599 C.ar    1  UNL1        0.0446
      6 C          63.5456   88.5237   12.6133 C.ar    1  UNL1        0.1414
      7 F          62.6423   87.9797   11.5463 F       1  UNL1       -0.2041
      8 C          62.6606   83.3442   13.8939 C.ar    1  UNL1        0.1178
      9 C          63.3247   83.9674   15.0857 C.ar    1  UNL1        0.0221
     10 C          63.7718   85.3982   15.0323 C.ar    1  UNL1        0.0033
     11 C          63.5547   86.2058   13.7870 C.ar    1  UNL1        0.0213
     12 C          62.8905   85.5826   12.5952 C.ar    1  UNL1        0.0990
     13 N          62.4435   84.1518   12.6486 N.ar    1  UNL1       -0.2409
     14 C          62.2135   81.9133   13.9472 C.2     1  UNL1        0.2133
     15 O          60.8442   81.5740   14.4569 O.2     1  UNL1       -0.2877
     16 C          63.1357   80.8219   13.4909 C.3     1  UNL1        0.1781
     17 C          63.8573   82.3748   10.7130 C.3     1  UNL1        0.0719
     18 C          63.3364   80.9730   10.8297 C.ar    1  UNL1        0.1212
     19 N          63.0558   80.0390    9.6901 N.ar    1  UNL1       -0.2293
     20 C          62.5506   78.7478   10.2627 C.ar    1  UNL1        0.1188
     21 C          62.5191   78.8840   11.7562 C.ar    1  UNL1        0.0981
     22 N          63.0047   80.2592   12.1066 N.ar    1  UNL1       -0.3062
     23 N          65.3429   91.9292   13.5734 N.am    1  UNL1       -0.2212
     24 C          65.4897   92.7614   12.3341 C.3     1  UNL1        0.1471
     25 C          65.9591   94.1256   12.7447 C.3     1  UNL1        0.2149
     26 O          66.1025   94.1365   14.2378 O.3     1  UNL1       -0.4342
     27 C          65.7216   92.7791   14.7500 C.2     1  UNL1        0.4088
     28 O          65.7198   92.3473   16.1865 O.2     1  UNL1       -0.2258
     29 C          66.2365   95.2767   11.8238 C.3     1  UNL1        0.1745
     30 N          66.7984   95.0245   10.4561 N.ar    1  UNL1       -0.2264
     31 C          66.5126   95.8298    9.2233 C.ar    1  UNL1        0.1193
     32 C          67.2823   95.2257    8.0863 C.ar    1  UNL1        0.1441
     33 N          68.0438   94.0471    8.6165 N.ar    1  UNL1       -0.1271
     34 N          67.7447   93.9227   10.0811 N.ar    1  UNL1       -0.0636
@<TRIPOS>BOND
     1    17    18    1
     2    18    19   ar
     3    19    20   ar
     4    20    21   ar
     5    21    22   ar
     6    22    16    1
     7    16    14    1
     8    14    15    2
     9    14     8    1
    10     8     9   ar
    11     9    10   ar
    12    10    11   ar
    13    11     1    1
    14     1     2   ar
    15     2     3   ar
    16     3     4   ar
    17     4    23    1
    18    23    24    1
    19    24    25    1
    20    25    29    1
    21    29    30    1
    22    30    31   ar
    23    31    32   ar
    24    32    33   ar
    25    33    34   ar
    26    25    26    1
    27    26    27    1
    28    27    28    2
    29     4     5   ar
    30     5     6   ar
    31     6     7    1
    32    11    12   ar
    33    12    13   ar
    34    22    18   ar
    35    13     8   ar
    36     6     1   ar
    37    27    23   am
    38    34    30   ar
@<TRIPOS>MOLECULE
*****
 34 38 0 0 0
SMALL
GASTEIGER

@<TRIPOS>ATOM
      1 C          64.3203   89.0087   13.5592 C.ar    1  UNL1        0.0291
      2 C          64.7068   88.4041   14.8764 C.ar    1  UNL1        0.0036
      3 C          64.2788   87.0068   15.2147 C.ar    1  UNL1        0.0152
      4 C          63.4643   86.2141   14.2358 C.ar    1  UNL1        0.0593
      5 C          63.0778   86.8188   12.9186 C.ar    1  UNL1        0.0446
      6 C          63.5058   88.2161   12.5803 C.ar    1  UNL1        0.1414
      7 F          63.1192   88.8208   11.2631 F       1  UNL1       -0.2041
      8 C          65.6042   93.2006   12.5444 C.ar    1  UNL1        0.1178
      9 C          66.1966   92.5015   13.7320 C.ar    1  UNL1        0.0221
     10 C          65.7686   91.1043   14.0702 C.ar    1  UNL1        0.0033
     11 C          64.7482   90.4061   13.2209 C.ar    1  UNL1        0.0213
     12 C          64.1558   91.1051   12.0334 C.ar    1  UNL1        0.0990
     13 N          64.5838   92.5024   11.6951 N.ar    1  UNL1       -0.2409
     14 C          66.0322   94.5979   12.2061 C.2     1  UNL1        0.2133
     15 O          66.3845   95.5603   13.3014 O.2     1  UNL1       -0.2877
     16 C          66.1078   95.0328   10.7725 C.3     1  UNL1        0.1781
     17 C          67.1437   96.1411    7.8833 C.3     1  UNL1        0.0719
     18 C          67.4678   94.8048    8.4827 C.ar    1  UNL1        0.1212
     19 N          68.3249   93.7434    7.8592 N.ar    1  UNL1       -0.2293
     20 C          68.3785   92.5779    8.8020 C.ar    1  UNL1        0.1188
     21 C          67.5544   92.9191   10.0082 C.ar    1  UNL1        0.0981
     22 N          66.9916   94.2954    9.8107 N.ar    1  UNL1       -0.3062
     23 N          63.0364   84.8169   14.5741 N.am    1  UNL1       -0.2212
     24 C          63.1355   83.6218   13.6729 C.3     1  UNL1        0.1471
     25 C          62.5945   82.4357   14.4148 C.3     1  UNL1        0.2149
     26 O          62.1610   82.8977   15.7744 O.3     1  UNL1       -0.4342
     27 C          62.4341   84.3693   15.8729 C.2     1  UNL1        0.4088
     28 O          62.1540   85.2404   17.0614 O.2     1  UNL1       -0.2258
     29 C          62.5031   81.0337   13.8893 C.3     1  UNL1        0.1745
     30 N          62.7470   80.7606   12.4346 N.ar    1  UNL1       -0.2264
     31 C          63.1664   81.7690   11.4064 C.ar    1  UNL1        0.1193
     32 C          63.2929   81.0627   10.0892 C.ar    1  UNL1        0.1441
     33 N          62.9517   79.6178   10.3033 N.ar    1  UNL1       -0.1271
     34 N          62.6143   79.4311   11.7528 N.ar    1  UNL1       -0.0636
@<TRIPOS>BOND
     1    17    18    1
     2    18    19   ar
     3    19    20   ar
     4    20    21   ar
     5    21    22   ar
     6    22    16    1
     7    16    14    1
     8    14    15    2
     9    14     8    1
    10     8     9   ar
    11     9    10   ar
    12    10    11   ar
    13    11     1    1
    14     1     2   ar
    15     2     3   ar
    16     3     4   ar
    17     4    23    1
    18    23    24    1
    19    24    25    1
    20    25    29    1
    21    29    30    1
    22    30    31   ar
    23    31    32   ar
    24    32    33   ar
    25    33    34   ar
    26    25    26    1
    27    26    27    1
    28    27    28    2
    29     4     5   ar
    30     5     6   ar
    31     6     7    1
    32    11    12   ar
    33    12    13   ar
    34    22    18   ar
    35    13     8   ar
    36     6     1   ar
    37    27    23   am
    38    34    30   ar
@<TRIPOS>MOLECULE
*****
 34 38 0 0 0
SMALL
GASTEIGER

@<TRIPOS>ATOM
      1 C          64.5892   90.1444   13.2731 C.ar    1  UNL1        0.0291
      2 C          63.6905   89.3235   12.3965 C.ar    1  UNL1        0.0036
      3 C          63.2787   87.9462   12.8251 C.ar    1  UNL1        0.0152
      4 C          63.7658   87.3899   14.1302 C.ar    1  UNL1        0.0593
      5 C          64.6645   88.2109   15.0067 C.ar    1  UNL1        0.0446
      6 C          65.0762   89.5881   14.5782 C.ar    1  UNL1        0.1414
      7 F          65.9750   90.4091   15.4547 F       1  UNL1       -0.2041
      8 C          65.8243   94.2762   11.9874 C.ar    1  UNL1        0.1178
      9 C          65.2119   93.3334   10.9944 C.ar    1  UNL1        0.0221
     10 C          64.8002   91.9562   11.4229 C.ar    1  UNL1        0.0033
     11 C          65.0009   91.5217   12.8445 C.ar    1  UNL1        0.0213
     12 C          65.6133   92.4645   13.8376 C.ar    1  UNL1        0.0990
     13 N          66.0250   93.8417   13.4090 N.ar    1  UNL1       -0.2409
     14 C          66.2360   95.6535   11.5589 C.2     1  UNL1        0.2133
     15 O          65.6824   96.8555   12.2651 O.2     1  UNL1       -0.2877
     16 C          67.2013   95.8287   10.4242 C.3     1  UNL1        0.1781
     17 C          68.1434   93.9122    7.9567 C.3     1  UNL1        0.0719
     18 C          67.1292   95.0146    7.8791 C.ar    1  UNL1        0.1212
     19 N          66.3700   95.4297    6.6539 N.ar    1  UNL1       -0.2293
     20 C          65.4676   96.5672    7.0308 C.ar    1  UNL1        0.1188
     21 C          65.6692   96.8551    8.4891 C.ar    1  UNL1        0.0981
     22 N          66.6961   95.8955    9.0133 N.ar    1  UNL1       -0.3062
     23 N          63.3541   86.0126   14.5587 N.am    1  UNL1       -0.2212
     24 C          63.5454   84.7502   13.7715 C.3     1  UNL1        0.1471
     25 C          62.9883   83.6133   14.5760 C.3     1  UNL1        0.2149
     26 O          62.4528   84.1732   15.8605 O.3     1  UNL1       -0.4342
     27 C          62.6789   85.6560   15.8498 C.2     1  UNL1        0.4088
     28 O          62.2968   86.6140   16.9390 O.2     1  UNL1       -0.2258
     29 C          62.9700   82.1701   14.1677 C.3     1  UNL1        0.1745
     30 N          63.1262   81.7972   12.7232 N.ar    1  UNL1       -0.2264
     31 C          63.6777   82.6765   11.6403 C.ar    1  UNL1        0.1193
     32 C          63.6506   81.9023   10.3559 C.ar    1  UNL1        0.1441
     33 N          63.0822   80.5445   10.6449 N.ar    1  UNL1       -0.1271
     34 N          62.7581   80.4796   12.1080 N.ar    1  UNL1       -0.0636
@<TRIPOS>BOND
     1    17    18    1
     2    18    19   ar
     3    19    20   ar
     4    20    21   ar
     5    21    22   ar
     6    22    16    1
     7    16    14    1
     8    14    15    2
     9    14     8    1
    10     8     9   ar
    11     9    10   ar
    12    10    11   ar
    13    11     1    1
    14     1     2   ar
    15     2     3   ar
    16     3     4   ar
    17     4    23    1
    18    23    24    1
    19    24    25    1
    20    25    29    1
    21    29    30    1
    22    30    31   ar
    23    31    32   ar
    24    32    33   ar
    25    33    34   ar
    26    25    26    1
    27    26    27    1
    28    27    28    2
    29     4     5   ar
    30     5     6   ar
    31     6     7    1
    32    11    12   ar
    33    12    13   ar
    34    22    18   ar
    35    13     8   ar
    36     6     1   ar
    37    27    23   am
    38    34    30   ar
@<TRIPOS>MOLECULE
*****
 34 38 0 0 0
SMALL
GASTEIGER

@<TRIPOS>ATOM
      1 C          59.6808   92.0489    3.9213 C.ar    1  UNL1        0.0291
      2 C          58.4066   91.7279    4.6448 C.ar    1  UNL1        0.0036
      3 C          58.4246   90.7906    5.8158 C.ar    1  UNL1        0.0152
      4 C          59.7169   90.1743    6.2632 C.ar    1  UNL1        0.0593
      5 C          60.9911   90.4953    5.5397 C.ar    1  UNL1        0.0446
      6 C          60.9730   91.4325    4.3688 C.ar    1  UNL1        0.1414
      7 F          62.2472   91.7535    3.6452 F       1  UNL1       -0.2041
      8 C          59.6266   94.8607    0.4084 C.ar    1  UNL1        0.1178
      9 C          59.1740   93.4406    0.2394 C.ar    1  UNL1        0.0221
     10 C          59.1921   92.5034    1.4104 C.ar    1  UNL1        0.0033
     11 C          59.6627   92.9862    2.7503 C.ar    1  UNL1        0.0213
     12 C          60.1152   94.4063    2.9193 C.ar    1  UNL1        0.0990
     13 N          60.0972   95.3435    1.7483 N.ar    1  UNL1       -0.2409
     14 C          59.6085   95.7980   -0.7626 C.2     1  UNL1        0.2133
     15 O          58.3007   96.2423   -1.3475 O.2     1  UNL1       -0.2877
     16 C          60.8983   96.2909   -1.3487 C.3     1  UNL1        0.1781
     17 C          61.8665   93.5437   -2.8199 C.3     1  UNL1        0.0719
     18 C          62.6201   94.2876   -1.7576 C.ar    1  UNL1        0.1212
     19 N          63.9511   93.8994   -1.1849 N.ar    1  UNL1       -0.2293
     20 C          64.3286   94.9223   -0.1547 C.ar    1  UNL1        0.1188
     21 C          63.2309   95.9427   -0.0907 C.ar    1  UNL1        0.0981
     22 N          62.1751   95.5503   -1.0813 N.ar    1  UNL1       -0.3062
     23 N          59.7350   89.2370    7.4342 N.am    1  UNL1       -0.2212
     24 C          60.1017   89.5944    8.8441 C.3     1  UNL1        0.1471
     25 C          59.9829   88.3560    9.6821 C.3     1  UNL1        0.2149
     26 O          59.5427   87.2332    8.7901 O.3     1  UNL1       -0.4342
     27 C          59.3895   87.7777    7.4008 C.2     1  UNL1        0.4088
     28 O          58.9653   86.9995    6.1907 O.2     1  UNL1       -0.2258
     29 C          60.2563   88.2577   11.1537 C.3     1  UNL1        0.1745
     30 N          61.5152   88.8414   11.7233 N.ar    1  UNL1       -0.2264
     31 C          61.8242   90.3023   11.8653 C.ar    1  UNL1        0.1193
     32 C          63.1861   90.4303   12.4807 C.ar    1  UNL1        0.1441
     33 N          63.7188   89.0485   12.7191 N.ar    1  UNL1       -0.1271
     34 N          62.6862   88.0664   12.2510 N.ar    1  UNL1       -0.0636
@<TRIPOS>BOND
     1    17    18    1
     2    18    19   ar
     3    19    20   ar
     4    20    21   ar
     5    21    22   ar
     6    22    16    1
     7    16    14    1
     8    14    15    2
     9    14     8    1
    10     8     9   ar
    11     9    10   ar
    12    10    11   ar
    13    11     1    1
    14     1     2   ar
    15     2     3   ar
    16     3     4   ar
    17     4    23    1
    18    23    24    1
    19    24    25    1
    20    25    29    1
    21    29    30    1
    22    30    31   ar
    23    31    32   ar
    24    32    33   ar
    25    33    34   ar
    26    25    26    1
    27    26    27    1
    28    27    28    2
    29     4     5   ar
    30     5     6   ar
    31     6     7    1
    32    11    12   ar
    33    12    13   ar
    34    22    18   ar
    35    13     8   ar
    36     6     1   ar
    37    27    23   am
    38    34    30   ar
@<TRIPOS>MOLECULE
*****
 34 38 0 0 0
SMALL
GASTEIGER

@<TRIPOS>ATOM
      1 C          60.6490   88.1294    8.2321 C.ar    1  UNL1        0.0291
      2 C          60.5296   86.6553    7.9820 C.ar    1  UNL1        0.0036
      3 C          61.0912   85.6786    8.9724 C.ar    1  UNL1        0.0152
      4 C          61.7722   86.1762   10.2128 C.ar    1  UNL1        0.0593
      5 C          61.8916   87.6504   10.4629 C.ar    1  UNL1        0.0446
      6 C          61.3300   88.6270    9.4725 C.ar    1  UNL1        0.1414
      7 F          61.4494   90.1013    9.7225 F       1  UNL1       -0.2041
      8 C          58.9644   91.0594    5.2610 C.ar    1  UNL1        0.1178
      9 C          60.4485   90.9536    5.4511 C.ar    1  UNL1        0.0221
     10 C          61.0100   89.9770    6.4414 C.ar    1  UNL1        0.0033
     11 C          60.0874   89.1061    7.2417 C.ar    1  UNL1        0.0213
     12 C          58.6033   89.2119    7.0516 C.ar    1  UNL1        0.0990
     13 N          58.0418   90.1885    6.0612 N.ar    1  UNL1       -0.2409
     14 C          58.4028   92.0360    4.2706 C.2     1  UNL1        0.2133
     15 O          56.9387   92.0160    3.9451 O.2     1  UNL1       -0.2877
     16 C          59.3053   93.0327    3.6057 C.3     1  UNL1        0.1781
     17 C          62.3586   92.3242    2.6974 C.3     1  UNL1        0.0719
     18 C          61.1788   92.4728    1.7831 C.ar    1  UNL1        0.1212
     19 N          61.1953   92.3219    0.2908 N.ar    1  UNL1       -0.2293
     20 C          59.8020   92.5542   -0.2140 C.ar    1  UNL1        0.1188
     21 C          58.9244   92.8488    0.9664 C.ar    1  UNL1        0.0981
     22 N          59.7754   92.7985    2.2006 N.ar    1  UNL1       -0.3062
     23 N          62.3338   85.1996   11.2032 N.am    1  UNL1       -0.2212
     24 C          62.1221   85.2293   12.6879 C.3     1  UNL1        0.1471
     25 C          62.8631   84.0699   13.2851 C.3     1  UNL1        0.2149
     26 O          63.5328   83.3237   12.1694 O.3     1  UNL1       -0.4342
     27 C          63.2056   84.0219   10.8828 C.2     1  UNL1        0.4088
     28 O          63.6690   83.6139    9.5157 O.2     1  UNL1       -0.2258
     29 C          62.9238   83.7185   14.7421 C.3     1  UNL1        0.1745
     30 N          62.6845   84.7755   15.7792 N.ar    1  UNL1       -0.2264
     31 C          63.7379   85.6019   16.4553 C.ar    1  UNL1        0.1193
     32 C          63.0541   86.5288   17.4162 C.ar    1  UNL1        0.1441
     33 N          61.5780   86.2751   17.3339 N.ar    1  UNL1       -0.1271
     34 N          61.3495   85.1915   16.3222 N.ar    1  UNL1       -0.0636
@<TRIPOS>BOND
     1    17    18    1
     2    18    19   ar
     3    19    20   ar
     4    20    21   ar
     5    21    22   ar
     6    22    16    1
     7    16    14    1
     8    14    15    2
     9    14     8    1
    10     8     9   ar
    11     9    10   ar
    12    10    11   ar
    13    11     1    1
    14     1     2   ar
    15     2     3   ar
    16     3     4   ar
    17     4    23    1
    18    23    24    1
    19    24    25    1
    20    25    29    1
    21    29    30    1
    22    30    31   ar
    23    31    32   ar
    24    32    33   ar
    25    33    34   ar
    26    25    26    1
    27    26    27    1
    28    27    28    2
    29     4     5   ar
    30     5     6   ar
    31     6     7    1
    32    11    12   ar
    33    12    13   ar
    34    22    18   ar
    35    13     8   ar
    36     6     1   ar
    37    27    23   am
    38    34    30   ar
@<TRIPOS>MOLECULE
*****
 34 38 0 0 0
SMALL
GASTEIGER

@<TRIPOS>ATOM
      1 C          59.7076   92.0296    3.8485 C.ar    1  UNL1        0.0291
      2 C          58.4319   91.7458    4.5845 C.ar    1  UNL1        0.0036
      3 C          58.4416   90.8409    5.7809 C.ar    1  UNL1        0.0152
      4 C          59.7271   90.2200    6.2412 C.ar    1  UNL1        0.0593
      5 C          61.0029   90.5039    5.5050 C.ar    1  UNL1        0.0446
      6 C          60.9931   91.4087    4.3088 C.ar    1  UNL1        0.1414
      7 F          62.2689   91.6926    3.5726 F       1  UNL1       -0.2041
      8 C          59.6784   94.7441    0.2595 C.ar    1  UNL1        0.1178
      9 C          59.1825   93.3337    0.1372 C.ar    1  UNL1        0.0221
     10 C          59.1922   92.4290    1.3335 C.ar    1  UNL1        0.0033
     11 C          59.6979   92.9345    2.6521 C.ar    1  UNL1        0.0213
     12 C          60.1938   94.3448    2.7744 C.ar    1  UNL1        0.0990
     13 N          60.1841   95.2496    1.5781 N.ar    1  UNL1       -0.2409
     14 C          59.6687   95.6489   -0.9369 C.2     1  UNL1        0.2133
     15 O          60.5857   96.8349   -0.9877 O.2     1  UNL1       -0.2877
     16 C          58.7420   95.3678   -2.0823 C.3     1  UNL1        0.1781
     17 C          56.7620   92.8376   -2.6542 C.3     1  UNL1        0.0719
     18 C          56.3490   94.1773   -2.1209 C.ar    1  UNL1        0.1212
     19 N          54.9534   94.5893   -1.7568 N.ar    1  UNL1       -0.2293
     20 C          55.0009   96.0070   -1.2689 C.ar    1  UNL1        0.1188
     21 C          56.4260   96.4712   -1.3315 C.ar    1  UNL1        0.0981
     22 N          57.2591   95.3403   -1.8581 N.ar    1  UNL1       -0.3062
     23 N          59.7369   89.3152    7.4375 N.am    1  UNL1       -0.2212
     24 C          60.1041   89.7086    8.8376 C.3     1  UNL1        0.1471
     25 C          59.9753   88.4946    9.7092 C.3     1  UNL1        0.2149
     26 O          59.5285   87.3509    8.8476 O.3     1  UNL1       -0.4342
     27 C          59.3811   87.8580    7.4437 C.2     1  UNL1        0.4088
     28 O          58.9531   87.0498    6.2547 O.2     1  UNL1       -0.2258
     29 C          60.2459   88.4349   11.1833 C.3     1  UNL1        0.1745
     30 N          61.5333   88.9746   11.7321 N.ar    1  UNL1       -0.2264
     31 C          61.9056   90.4234   11.8438 C.ar    1  UNL1        0.1193
     32 C          63.2769   90.5044   12.4462 C.ar    1  UNL1        0.1441
     33 N          63.7522   89.1058   12.7068 N.ar    1  UNL1       -0.1271
     34 N          62.6746   88.1603   12.2654 N.ar    1  UNL1       -0.0636
@<TRIPOS>BOND
     1    17    18    1
     2    18    19   ar
     3    19    20   ar
     4    20    21   ar
     5    21    22   ar
     6    22    16    1
     7    16    14    1
     8    14    15    2
     9    14     8    1
    10     8     9   ar
    11     9    10   ar
    12    10    11   ar
    13    11     1    1
    14     1     2   ar
    15     2     3   ar
    16     3     4   ar
    17     4    23    1
    18    23    24    1
    19    24    25    1
    20    25    29    1
    21    29    30    1
    22    30    31   ar
    23    31    32   ar
    24    32    33   ar
    25    33    34   ar
    26    25    26    1
    27    26    27    1
    28    27    28    2
    29     4     5   ar
    30     5     6   ar
    31     6     7    1
    32    11    12   ar
    33    12    13   ar
    34    22    18   ar
    35    13     8   ar
    36     6     1   ar
    37    27    23   am
    38    34    30   ar
@<TRIPOS>MOLECULE
*****
 34 38 0 0 0
SMALL
GASTEIGER

@<TRIPOS>ATOM
      1 C          59.7343   92.2200    3.6759 C.ar    1  UNL1        0.0291
      2 C          58.4708   91.9118    4.4233 C.ar    1  UNL1        0.0036
      3 C          58.5088   91.0083    5.6201 C.ar    1  UNL1        0.0152
      4 C          59.8102   90.4131    6.0695 C.ar    1  UNL1        0.0593
      5 C          61.0737   90.7214    5.3221 C.ar    1  UNL1        0.0446
      6 C          61.0358   91.6249    4.1254 C.ar    1  UNL1        0.1414
      7 F          62.2993   91.9332    3.3780 F       1  UNL1       -0.2041
      8 C          59.6205   94.9303    0.0855 C.ar    1  UNL1        0.1178
      9 C          59.2054   93.4949   -0.0450 C.ar    1  UNL1        0.0221
     10 C          59.2433   92.5915    1.1518 C.ar    1  UNL1        0.0033
     11 C          59.6964   93.1235    2.4791 C.ar    1  UNL1        0.0213
     12 C          60.1115   94.5590    2.6096 C.ar    1  UNL1        0.0990
     13 N          60.0736   95.4624    1.4128 N.ar    1  UNL1       -0.2409
     14 C          59.5826   95.8338   -1.1113 C.2     1  UNL1        0.2133
     15 O          58.2665   96.3156   -1.6460 O.2     1  UNL1       -0.2877
     16 C          60.8607   96.2555   -1.7735 C.3     1  UNL1        0.1781
     17 C          62.0948   93.3516   -2.6061 C.3     1  UNL1        0.0719
     18 C          61.7377   94.4612   -3.5501 C.ar    1  UNL1        0.1212
     19 N          61.8851   94.4308   -5.0425 N.ar    1  UNL1       -0.2293
     20 C          61.4089   95.7469   -5.5823 C.ar    1  UNL1        0.1188
     21 C          60.9672   96.5907   -4.4233 C.ar    1  UNL1        0.0981
     22 N          61.1704   95.7960   -3.1674 N.ar    1  UNL1       -0.3062
     23 N          59.8482   89.5097    7.2663 N.am    1  UNL1       -0.2212
     24 C          60.3297   89.8821    8.6372 C.3     1  UNL1        0.1471
     25 C          60.1904   88.6778    9.5205 C.3     1  UNL1        0.2149
     26 O          59.6228   87.5610    8.6954 O.3     1  UNL1       -0.4342
     27 C          59.4113   88.0752    7.3023 C.2     1  UNL1        0.4088
     28 O          58.8597   87.2923    6.1478 O.2     1  UNL1       -0.2258
     29 C          60.5548   88.6032   10.9737 C.3     1  UNL1        0.1745
     30 N          61.5026   87.5453   11.4560 N.ar    1  UNL1       -0.2264
     31 C          61.3602   86.0681   11.2377 C.ar    1  UNL1        0.1193
     32 C          62.5287   85.3888   11.8880 C.ar    1  UNL1        0.1441
     33 N          63.3933   86.4460   12.5082 N.ar    1  UNL1       -0.1271
     34 N          62.7591   87.7789   12.2412 N.ar    1  UNL1       -0.0636
@<TRIPOS>BOND
     1    17    18    1
     2    18    19   ar
     3    19    20   ar
     4    20    21   ar
     5    21    22   ar
     6    22    16    1
     7    16    14    1
     8    14    15    2
     9    14     8    1
    10     8     9   ar
    11     9    10   ar
    12    10    11   ar
    13    11     1    1
    14     1     2   ar
    15     2     3   ar
    16     3     4   ar
    17     4    23    1
    18    23    24    1
    19    24    25    1
    20    25    29    1
    21    29    30    1
    22    30    31   ar
    23    31    32   ar
    24    32    33   ar
    25    33    34   ar
    26    25    26    1
    27    26    27    1
    28    27    28    2
    29     4     5   ar
    30     5     6   ar
    31     6     7    1
    32    11    12   ar
    33    12    13   ar
    34    22    18   ar
    35    13     8   ar
    36     6     1   ar
    37    27    23   am
    38    34    30   ar
