@<TRIPOS>MOLECULE
*****
 33 37 0 0 0
SMALL
GASTEIGER

@<TRIPOS>ATOM
      1 C          62.7865   86.7974   11.9235 C.2     1  UNL1        0.2506
      2 O          63.5937   87.4094   13.0298 O.2     1  UNL1       -0.2699
      3 N          61.8126   87.6380   11.1523 N.am    1  UNL1       -0.2723
      4 C          61.0053   87.0260   10.0459 C.3     1  UNL1        0.1257
      5 C          60.0314   87.8666    9.2747 C.3     1  UNL1        0.1637
      6 O          59.8646   89.3192    9.6098 O.3     1  UNL1       -0.3502
      7 C          60.6718   89.9311   10.7161 C.3     1  UNL1        0.1622
      8 C          61.6458   89.0906   11.4874 C.3     1  UNL1        0.1096
      9 C          63.4536   80.9872   10.5831 C.3     1  UNL1        0.0307
     10 C          63.2869   82.4398   10.9182 C.ar    1  UNL1       -0.0243
     11 C          63.1490   83.4518    9.8197 C.ar    1  UNL1       -0.0043
     12 C          62.9822   84.9044   10.1548 C.ar    1  UNL1        0.0057
     13 C          62.9533   85.3449   11.5884 C.ar    1  UNL1        0.0726
     14 C          63.0912   84.3328   12.6868 C.ar    1  UNL1        0.1029
     15 C          63.2579   82.8803   12.3517 C.ar    1  UNL1       -0.0062
     16 C          63.3958   81.8682   13.4503 C.3     1  UNL1        0.0323
     17 N          63.0623   84.7733   14.1205 N.ar    1  UNL1       -0.1480
     18 N          61.8592   84.7811   15.0163 N.ar    1  UNL1       -0.1447
     19 C          62.2847   85.2958   16.3594 C.ar    1  UNL1        0.1446
     20 C          63.7508   85.6062   16.2936 C.ar    1  UNL1        0.1446
     21 N          64.2313   85.2832   14.9099 N.ar    1  UNL1       -0.1447
     22 C          62.4530   89.7025   12.5936 C.3     1  UNL1        0.0488
     23 C          63.5508   90.6730   12.2727 C.ar    1  UNL1       -0.0189
     24 C          63.6365   91.2830   10.9051 C.ar    1  UNL1       -0.0041
     25 C          64.7343   92.2535   10.5842 C.ar    1  UNL1        0.0013
     26 C          65.7464   92.6139   11.6309 C.ar    1  UNL1        0.0209
     27 C          65.6607   92.0038   12.9985 C.ar    1  UNL1        0.1026
     28 C          64.5629   91.0334   13.3194 C.ar    1  UNL1        0.0167
     29 N          66.6729   92.3642   14.0453 N.ar    1  UNL1       -0.1478
     30 N          66.3725   92.8149   15.4441 N.ar    1  UNL1       -0.1447
     31 C          67.6771   93.0664   16.1403 C.ar    1  UNL1        0.1446
     32 C          68.7839   92.7712   15.1718 C.ar    1  UNL1        0.1446
     33 N          68.1632   92.3372   13.8771 N.ar    1  UNL1       -0.1447
@<TRIPOS>BOND
     1     9    10    1
     2    10    11   ar
     3    11    12   ar
     4    12    13   ar
     5    13     1    1
     6     1     2    2
     7     1     3   am
     8     3     4    1
     9     4     5    1
    10     5     6    1
    11     6     7    1
    12     7     8    1
    13     8    22    1
    14    22    23    1
    15    23    24   ar
    16    24    25   ar
    17    25    26   ar
    18    26    27   ar
    19    27    29    1
    20    29    30   ar
    21    30    31   ar
    22    31    32   ar
    23    32    33   ar
    24    27    28   ar
    25    13    14   ar
    26    14    17    1
    27    17    18   ar
    28    18    19   ar
    29    19    20   ar
    30    20    21   ar
    31    14    15   ar
    32    15    16    1
    33    15    10   ar
    34     8     3    1
    35    28    23   ar
    36    21    17   ar
    37    33    29   ar
@<TRIPOS>MOLECULE
*****
 33 37 0 0 0
SMALL
GASTEIGER

@<TRIPOS>ATOM
      1 C          63.0879   87.0904   12.5002 C.2     1  UNL1        0.2506
      2 O          63.6773   87.5053   13.8157 O.2     1  UNL1       -0.2699
      3 N          62.4697   88.1170   11.5982 N.am    1  UNL1       -0.2723
      4 C          61.8803   87.7021   10.2827 C.3     1  UNL1        0.1257
      5 C          61.2620   88.7288    9.3807 C.3     1  UNL1        0.1637
      6 O          61.2331   90.1704    9.7941 O.3     1  UNL1       -0.3502
      7 C          61.8224   90.5853   11.1096 C.3     1  UNL1        0.1622
      8 C          62.4407   89.5586   12.0117 C.3     1  UNL1        0.1096
      9 C          63.2038   81.3240   10.8464 C.3     1  UNL1        0.0307
     10 C          63.1748   82.7656   11.2598 C.ar    1  UNL1       -0.0243
     11 C          63.1866   83.8449   10.2183 C.ar    1  UNL1       -0.0043
     12 C          63.1577   85.2865   10.6318 C.ar    1  UNL1        0.0057
     13 C          63.1169   85.6488   12.0867 C.ar    1  UNL1        0.0726
     14 C          63.1051   84.5695   13.1283 C.ar    1  UNL1        0.1029
     15 C          63.1341   83.1279   12.7148 C.ar    1  UNL1       -0.0062
     16 C          63.1223   82.0485   13.7565 C.3     1  UNL1        0.0323
     17 N          63.0644   84.9317   14.5834 N.ar    1  UNL1       -0.1480
     18 N          61.8365   84.9917   15.4430 N.ar    1  UNL1       -0.1447
     19 C          62.2575   85.3946   16.8251 C.ar    1  UNL1        0.1446
     20 C          63.7456   85.5836   16.8198 C.ar    1  UNL1        0.1446
     21 N          64.2442   85.2975   15.4343 N.ar    1  UNL1       -0.1447
     22 C          63.0300   89.9736   13.3271 C.3     1  UNL1        0.0488
     23 C          64.3260   90.7279   13.3638 C.ar    1  UNL1       -0.0189
     24 C          65.2490   90.5765   14.5365 C.ar    1  UNL1       -0.0041
     25 C          66.5450   91.3308   14.5731 C.ar    1  UNL1        0.0013
     26 C          66.9181   92.2365   13.4371 C.ar    1  UNL1        0.0209
     27 C          65.9951   92.3878   12.2645 C.ar    1  UNL1        0.1026
     28 C          64.6991   91.6336   12.2278 C.ar    1  UNL1        0.0167
     29 N          66.3682   93.2935   11.1284 N.ar    1  UNL1       -0.1478
     30 N          65.6480   94.5465   10.7266 N.ar    1  UNL1       -0.1447
     31 C          66.3617   95.1326    9.5446 C.ar    1  UNL1        0.1446
     32 C          67.5230   94.2418    9.2158 C.ar    1  UNL1        0.1446
     33 N          67.5270   93.1053   10.1946 N.ar    1  UNL1       -0.1447
@<TRIPOS>BOND
     1     9    10    1
     2    10    11   ar
     3    11    12   ar
     4    12    13   ar
     5    13     1    1
     6     1     2    2
     7     1     3   am
     8     3     4    1
     9     4     5    1
    10     5     6    1
    11     6     7    1
    12     7     8    1
    13     8    22    1
    14    22    23    1
    15    23    24   ar
    16    24    25   ar
    17    25    26   ar
    18    26    27   ar
    19    27    29    1
    20    29    30   ar
    21    30    31   ar
    22    31    32   ar
    23    32    33   ar
    24    27    28   ar
    25    13    14   ar
    26    14    17    1
    27    17    18   ar
    28    18    19   ar
    29    19    20   ar
    30    20    21   ar
    31    14    15   ar
    32    15    16    1
    33    15    10   ar
    34     8     3    1
    35    28    23   ar
    36    21    17   ar
    37    33    29   ar
@<TRIPOS>MOLECULE
*****
 33 37 0 0 0
SMALL
GASTEIGER

@<TRIPOS>ATOM
      1 C          62.7979   88.5135   11.5808 C.2     1  UNL1        0.2506
      2 O          62.7686   90.0126   11.5390 O.2     1  UNL1       -0.2699
      3 N          63.4002   87.8078   12.7594 N.am    1  UNL1       -0.2723
      4 C          63.4296   86.3086   12.8013 C.3     1  UNL1        0.1257
      5 C          64.0319   85.6029   13.9799 C.3     1  UNL1        0.1637
      6 O          64.6050   86.3963   15.1166 O.3     1  UNL1       -0.3502
      7 C          64.5757   87.8954   15.0747 C.3     1  UNL1        0.1622
      8 C          63.9733   88.6012   13.8961 C.3     1  UNL1        0.1096
      9 C          60.5056   85.3400    7.0340 C.3     1  UNL1        0.0307
     10 C          61.0787   86.1334    8.1707 C.ar    1  UNL1       -0.0243
     11 C          62.5097   85.9377    8.5755 C.ar    1  UNL1       -0.0043
     12 C          63.0827   86.7311    9.7122 C.ar    1  UNL1        0.0057
     13 C          62.2248   87.7201   10.4441 C.ar    1  UNL1        0.0726
     14 C          60.7938   87.9158   10.0393 C.ar    1  UNL1        0.1029
     15 C          60.2207   87.1224    8.9026 C.ar    1  UNL1       -0.0062
     16 C          58.7896   87.3181    8.4978 C.3     1  UNL1        0.0323
     17 N          59.9358   88.9048   10.7713 N.ar    1  UNL1       -0.1480
     18 N          59.7412   90.3458   10.4029 N.ar    1  UNL1       -0.1447
     19 C          58.8069   90.9582   11.4039 C.ar    1  UNL1        0.1446
     20 C          58.4241   89.8956   12.3910 C.ar    1  UNL1        0.1446
     21 N          59.1218   88.6266   12.0000 N.ar    1  UNL1       -0.1447
     22 C          63.9440   90.1003   13.8543 C.3     1  UNL1        0.0488
     23 C          65.2273   90.8739   13.7845 C.ar    1  UNL1       -0.0189
     24 C          66.1735   90.8635   14.9483 C.ar    1  UNL1       -0.0041
     25 C          67.4567   91.6371   14.8786 C.ar    1  UNL1        0.0013
     26 C          67.7938   92.4210   13.6450 C.ar    1  UNL1        0.0209
     27 C          66.8476   92.4314   12.4812 C.ar    1  UNL1        0.1026
     28 C          65.5643   91.6578   12.5509 C.ar    1  UNL1        0.0167
     29 N          67.1846   93.2154   11.2475 N.ar    1  UNL1       -0.1478
     30 N          66.8393   94.6531   10.9947 N.ar    1  UNL1       -0.1447
     31 C          67.3674   95.0255    9.6411 C.ar    1  UNL1        0.1446
     32 C          68.0390   93.8180    9.0572 C.ar    1  UNL1        0.1446
     33 N          67.9260   92.6993   10.0500 N.ar    1  UNL1       -0.1447
@<TRIPOS>BOND
     1     9    10    1
     2    10    11   ar
     3    11    12   ar
     4    12    13   ar
     5    13     1    1
     6     1     2    2
     7     1     3   am
     8     3     4    1
     9     4     5    1
    10     5     6    1
    11     6     7    1
    12     7     8    1
    13     8    22    1
    14    22    23    1
    15    23    24   ar
    16    24    25   ar
    17    25    26   ar
    18    26    27   ar
    19    27    29    1
    20    29    30   ar
    21    30    31   ar
    22    31    32   ar
    23    32    33   ar
    24    27    28   ar
    25    13    14   ar
    26    14    17    1
    27    17    18   ar
    28    18    19   ar
    29    19    20   ar
    30    20    21   ar
    31    14    15   ar
    32    15    16    1
    33    15    10   ar
    34     8     3    1
    35    28    23   ar
    36    21    17   ar
    37    33    29   ar
@<TRIPOS>MOLECULE
*****
 33 37 0 0 0
SMALL
GASTEIGER

@<TRIPOS>ATOM
      1 C          63.7308   87.3455   13.6630 C.2     1  UNL1        0.2506
      2 O          63.9145   88.2118   12.4524 O.2     1  UNL1       -0.2699
      3 N          63.5148   87.9727   15.0083 N.am    1  UNL1       -0.2723
      4 C          63.3310   87.1064   16.2190 C.3     1  UNL1        0.1257
      5 C          63.1150   87.7336   17.5643 C.3     1  UNL1        0.1637
      6 O          63.0828   89.2272   17.6990 O.3     1  UNL1       -0.3502
      7 C          63.2665   90.0935   16.4884 C.3     1  UNL1        0.1622
      8 C          63.4825   89.4663   15.1430 C.3     1  UNL1        0.1096
      9 C          63.8598   81.3711   13.1243 C.3     1  UNL1        0.0307
     10 C          63.8275   82.8647   13.2590 C.ar    1  UNL1       -0.0243
     11 C          64.5665   83.5328   14.3803 C.ar    1  UNL1       -0.0043
     12 C          64.5343   85.0264   14.5150 C.ar    1  UNL1        0.0057
     13 C          63.7630   85.8519   13.5284 C.ar    1  UNL1        0.0726
     14 C          63.0240   85.1838   12.4070 C.ar    1  UNL1        0.1029
     15 C          63.0563   83.6903   12.2723 C.ar    1  UNL1       -0.0062
     16 C          62.3172   83.0222   11.1509 C.3     1  UNL1        0.0323
     17 N          62.2527   86.0094   11.4202 N.ar    1  UNL1       -0.1480
     18 N          60.9823   86.7569   11.6984 N.ar    1  UNL1       -0.1447
     19 C          60.5608   87.4419   10.4322 C.ar    1  UNL1        0.1446
     20 C          61.5707   87.1176    9.3715 C.ar    1  UNL1        0.1446
     21 N          62.6163   86.2323    9.9822 N.ar    1  UNL1       -0.1447
     22 C          63.6663   90.3327   13.9324 C.3     1  UNL1        0.0488
     23 C          64.9360   91.1107   13.7527 C.ar    1  UNL1       -0.0189
     24 C          66.0447   90.9787   14.7543 C.ar    1  UNL1       -0.0041
     25 C          67.3145   91.7567   14.5745 C.ar    1  UNL1        0.0013
     26 C          67.4756   92.6669   13.3932 C.ar    1  UNL1        0.0209
     27 C          66.3669   92.7989   12.3915 C.ar    1  UNL1        0.1026
     28 C          65.0971   92.0209   12.5713 C.ar    1  UNL1        0.0167
     29 N          66.5279   93.7091   11.2101 N.ar    1  UNL1       -0.1478
     30 N          65.7289   94.9488   10.9368 N.ar    1  UNL1       -0.1447
     31 C          66.2234   95.5452    9.6523 C.ar    1  UNL1        0.1446
     32 C          67.3280   94.6741    9.1318 C.ar    1  UNL1        0.1446
     33 N          67.5162   93.5393   10.0946 N.ar    1  UNL1       -0.1447
@<TRIPOS>BOND
     1     9    10    1
     2    10    11   ar
     3    11    12   ar
     4    12    13   ar
     5    13     1    1
     6     1     2    2
     7     1     3   am
     8     3     4    1
     9     4     5    1
    10     5     6    1
    11     6     7    1
    12     7     8    1
    13     8    22    1
    14    22    23    1
    15    23    24   ar
    16    24    25   ar
    17    25    26   ar
    18    26    27   ar
    19    27    29    1
    20    29    30   ar
    21    30    31   ar
    22    31    32   ar
    23    32    33   ar
    24    27    28   ar
    25    13    14   ar
    26    14    17    1
    27    17    18   ar
    28    18    19   ar
    29    19    20   ar
    30    20    21   ar
    31    14    15   ar
    32    15    16    1
    33    15    10   ar
    34     8     3    1
    35    28    23   ar
    36    21    17   ar
    37    33    29   ar
@<TRIPOS>MOLECULE
*****
 33 37 0 0 0
SMALL
GASTEIGER

@<TRIPOS>ATOM
      1 C          62.7297   89.0112   11.6217 C.2     1  UNL1        0.2506
      2 O          62.9101   87.8336   12.5330 O.2     1  UNL1       -0.2699
      3 N          61.6919   88.9700   10.5395 N.am    1  UNL1       -0.2723
      4 C          61.5115   90.1477    9.6281 C.3     1  UNL1        0.1257
      5 C          60.4736   90.1065    8.5459 C.3     1  UNL1        0.1637
      6 O          59.6162   88.8877    8.3751 O.3     1  UNL1       -0.3502
      7 C          59.7965   87.7100    9.2864 C.3     1  UNL1        0.1622
      8 C          60.8344   87.7512   10.3687 C.3     1  UNL1        0.1096
      9 C          66.1596   93.8866   12.3050 C.3     1  UNL1        0.0307
     10 C          65.3021   92.6677   12.1342 C.ar    1  UNL1       -0.0243
     11 C          64.7474   92.3243   10.7836 C.ar    1  UNL1       -0.0043
     12 C          63.8899   91.1055   10.6127 C.ar    1  UNL1        0.0057
     13 C          63.5872   90.2301   11.7925 C.ar    1  UNL1        0.0726
     14 C          64.1420   90.5735   13.1431 C.ar    1  UNL1        0.1029
     15 C          64.9994   91.7923   13.3140 C.ar    1  UNL1       -0.0062
     16 C          65.5542   92.1357   14.6647 C.3     1  UNL1        0.0323
     17 N          63.8393   89.6980   14.3230 N.ar    1  UNL1       -0.1480
     18 N          64.5410   88.4200   14.6757 N.ar    1  UNL1       -0.1447
     19 C          63.9172   87.8790   15.9280 C.ar    1  UNL1        0.1446
     20 C          62.8299   88.8227   16.3492 C.ar    1  UNL1        0.1446
     21 N          62.7818   89.9469   15.3573 N.ar    1  UNL1       -0.1447
     22 C          61.0148   86.5735   11.2800 C.3     1  UNL1        0.0488
     23 C          61.9249   85.4496   10.8819 C.ar    1  UNL1       -0.0189
     24 C          62.6593   85.5061    9.5753 C.ar    1  UNL1       -0.0041
     25 C          63.5693   84.3821    9.1772 C.ar    1  UNL1        0.0013
     26 C          63.7450   83.2016   10.0857 C.ar    1  UNL1        0.0209
     27 C          63.0105   83.1451   11.3923 C.ar    1  UNL1        0.1026
     28 C          62.1005   84.2691   11.7904 C.ar    1  UNL1        0.0167
     29 N          63.1861   81.9645   12.3010 N.ar    1  UNL1       -0.1478
     30 N          64.1329   81.8780   13.4612 N.ar    1  UNL1       -0.1447
     31 C          63.9777   80.5233   14.0861 C.ar    1  UNL1        0.1446
     32 C          62.9349   79.7724   13.3121 C.ar    1  UNL1        0.1446
     33 N          62.4457   80.6632   12.2089 N.ar    1  UNL1       -0.1447
@<TRIPOS>BOND
     1     9    10    1
     2    10    11   ar
     3    11    12   ar
     4    12    13   ar
     5    13     1    1
     6     1     2    2
     7     1     3   am
     8     3     4    1
     9     4     5    1
    10     5     6    1
    11     6     7    1
    12     7     8    1
    13     8    22    1
    14    22    23    1
    15    23    24   ar
    16    24    25   ar
    17    25    26   ar
    18    26    27   ar
    19    27    29    1
    20    29    30   ar
    21    30    31   ar
    22    31    32   ar
    23    32    33   ar
    24    27    28   ar
    25    13    14   ar
    26    14    17    1
    27    17    18   ar
    28    18    19   ar
    29    19    20   ar
    30    20    21   ar
    31    14    15   ar
    32    15    16    1
    33    15    10   ar
    34     8     3    1
    35    28    23   ar
    36    21    17   ar
    37    33    29   ar
@<TRIPOS>MOLECULE
*****
 33 37 0 0 0
SMALL
GASTEIGER

@<TRIPOS>ATOM
      1 C          63.5124   87.3914   13.2516 C.2     1  UNL1        0.2506
      2 O          63.5107   88.0156   11.8877 O.2     1  UNL1       -0.2699
      3 N          63.3945   88.2556   14.4720 N.am    1  UNL1       -0.2723
      4 C          63.3963   87.6315   15.8360 C.3     1  UNL1        0.1257
      5 C          63.2784   88.4956   17.0563 C.3     1  UNL1        0.1637
      6 O          63.1587   89.9840   16.9127 O.3     1  UNL1       -0.3502
      7 C          63.1570   90.6081   15.5488 C.3     1  UNL1        0.1622
      8 C          63.2749   89.7439   14.3283 C.3     1  UNL1        0.1096
      9 C          63.9909   81.4382   13.8261 C.3     1  UNL1        0.0307
     10 C          63.8713   82.9265   13.6825 C.ar    1  UNL1       -0.0243
     11 C          64.4935   83.8310   14.7045 C.ar    1  UNL1       -0.0043
     12 C          64.3739   85.3193   14.5609 C.ar    1  UNL1        0.0057
     13 C          63.6321   85.9031   13.3952 C.ar    1  UNL1        0.0726
     14 C          63.0098   84.9986   12.3732 C.ar    1  UNL1        0.1029
     15 C          63.1295   83.5103   12.5168 C.ar    1  UNL1       -0.0062
     16 C          62.5072   82.6057   11.4947 C.3     1  UNL1        0.0323
     17 N          62.2679   85.5824   11.2074 N.ar    1  UNL1       -0.1480
     18 N          62.6605   85.4651    9.7644 N.ar    1  UNL1       -0.1447
     19 C          61.6385   86.1961    8.9452 C.ar    1  UNL1        0.1446
     20 C          60.6143   86.7651    9.8819 C.ar    1  UNL1        0.1446
     21 N          61.0034   86.3858   11.2800 N.ar    1  UNL1       -0.1447
     22 C          63.2732   90.3680   12.9644 C.3     1  UNL1        0.0488
     23 C          64.3760   91.3036   12.5663 C.ar    1  UNL1       -0.0189
     24 C          64.4048   91.8837   11.1833 C.ar    1  UNL1       -0.0041
     25 C          65.5076   92.8192   10.7852 C.ar    1  UNL1        0.0013
     26 C          66.5817   93.1747   11.7701 C.ar    1  UNL1        0.0209
     27 C          66.5529   92.5946   13.1530 C.ar    1  UNL1        0.1026
     28 C          65.4501   91.6591   13.5511 C.ar    1  UNL1        0.0167
     29 N          67.6270   92.9501   14.1380 N.ar    1  UNL1       -0.1478
     30 N          67.4780   93.8749   15.3095 N.ar    1  UNL1       -0.1447
     31 C          68.7975   93.9395   16.0199 C.ar    1  UNL1        0.1446
     32 C          69.7621   93.0547   15.2873 C.ar    1  UNL1        0.1446
     33 N          69.0387   92.4432   14.1242 N.ar    1  UNL1       -0.1447
@<TRIPOS>BOND
     1     9    10    1
     2    10    11   ar
     3    11    12   ar
     4    12    13   ar
     5    13     1    1
     6     1     2    2
     7     1     3   am
     8     3     4    1
     9     4     5    1
    10     5     6    1
    11     6     7    1
    12     7     8    1
    13     8    22    1
    14    22    23    1
    15    23    24   ar
    16    24    25   ar
    17    25    26   ar
    18    26    27   ar
    19    27    29    1
    20    29    30   ar
    21    30    31   ar
    22    31    32   ar
    23    32    33   ar
    24    27    28   ar
    25    13    14   ar
    26    14    17    1
    27    17    18   ar
    28    18    19   ar
    29    19    20   ar
    30    20    21   ar
    31    14    15   ar
    32    15    16    1
    33    15    10   ar
    34     8     3    1
    35    28    23   ar
    36    21    17   ar
    37    33    29   ar
