@<TRIPOS>MOLECULE
*****
 43 46 0 0 0
SMALL
GASTEIGER

@<TRIPOS>ATOM
      1 N          64.3966   91.0650   12.8468 N.pl3   1  UNL1       -0.3043
      2 C          63.4712   91.7593   11.8921 C.3     1  UNL1        0.1123
      3 C          62.5513   90.9561   11.0212 C.3     1  UNL1        0.1149
      4 N          62.5567   89.4584   11.1051 N.am    1  UNL1       -0.2747
      5 C          61.6368   88.6551   10.2343 C.2     1  UNL1        0.2442
      6 O          60.7114   89.3494    9.2795 O.2     1  UNL1       -0.2731
      7 C          63.4821   88.7640   12.0599 C.3     1  UNL1        0.1149
      8 C          64.4021   89.5674   12.9307 C.3     1  UNL1        0.1123
      9 C          66.1302   92.9801   13.1245 C.ar    1  UNL1        0.0076
     10 C          67.0501   93.7834   13.9953 C.ar    1  UNL1        0.0279
     11 C          67.1564   93.4749   15.4594 C.ar    1  UNL1        0.1400
     12 F          68.0763   94.2783   16.3303 F       1  UNL1       -0.2042
     13 C          66.3427   92.3632   16.0527 C.ar    1  UNL1        0.0309
     14 C          65.4228   91.5599   15.1818 C.ar    1  UNL1        0.0165
     15 C          65.3166   91.8684   13.7177 C.ar    1  UNL1        0.0453
     16 C          66.0239   93.2886   11.6604 C.3     1  UNL1        0.0781
     17 N          65.3939   94.5725   11.2082 N.3     1  UNL1       -0.2939
     18 H          64.6461   94.7824   11.8693 H       1  UNL1        0.1235
     19 C          66.2262   95.8146   11.0874 C.3     1  UNL1        0.0863
     20 C          65.9835   96.7733    9.9595 C.3     1  UNL1        0.0895
     21 N          66.2051   96.3353    8.5421 N.3     1  UNL1       -0.2691
     22 C          65.3186   96.8548    7.4493 C.3     1  UNL1        0.0897
     23 C          67.3132   95.3777    8.2175 C.3     1  UNL1        0.0897
     24 C          66.5477   92.3131   10.6485 C.3     1  UNL1        0.0203
     25 C          68.7527   92.3246    9.2744 C.3     1  UNL1        0.0001
     26 C          68.0211   92.0483   10.5545 C.3     1  UNL1        0.0017
     27 C          68.7631   91.5074   11.7406 C.3     1  UNL1        0.0001
     28 C          61.6422   87.1575   10.3182 C.3     1  UNL1        0.1564
     29 N          61.7094   86.3363    9.0647 N.am    1  UNL1       -0.2727
     30 C          62.9270   85.6434    8.5287 C.3     1  UNL1        0.0943
     31 C          62.5409   84.9427    7.2599 C.3     1  UNL1        0.0311
     32 C          61.0846   85.2025    7.0117 C.3     1  UNL1        0.0870
     33 C          60.5706   86.0638    8.1271 C.2     1  UNL1        0.2260
     34 O          59.1649   86.5646    8.2783 O.2     1  UNL1       -0.2749
     35 C          61.5805   86.4810   11.6556 C.3     1  UNL1        0.0564
     36 C          62.3671   85.2271   11.8988 C.ar    1  UNL1       -0.0094
     37 C          62.1482   84.0240   11.0300 C.ar    1  UNL1       -0.0025
     38 C          62.9348   82.7702   11.2732 C.ar    1  UNL1        0.0111
     39 C          63.9403   82.7194   12.3852 C.ar    1  UNL1        0.0585
     40 CL         64.7268   81.4656   12.6285 Cl      1  UNL1       -0.0822
     41 C          64.1591   83.9225   13.2540 C.ar    1  UNL1        0.0225
     42 C          63.3725   85.1763   13.0107 C.ar    1  UNL1        0.0546
     43 CL         63.5914   86.3794   13.8795 Cl      1  UNL1       -0.0825
@<TRIPOS>BOND
     1    25    26    1
     2    26    27    1
     3    26    24    1
     4    16    24    1
     5    16    17    1
     6    17    19    1
     7    19    20    1
     8    20    21    1
     9    21    22    1
    10    21    23    1
    11    16     9    1
    12     9    10   ar
    13    10    11   ar
    14    11    12    1
    15    11    13   ar
    16    13    14   ar
    17    14    15   ar
    18    15     1    1
    19     1     2    1
    20     2     3    1
    21     3     4    1
    22     4     5   am
    23     5     6    2
    24     5    28    1
    25    28    35    1
    26    35    36    1
    27    36    37   ar
    28    37    38   ar
    29    38    39   ar
    30    39    40    1
    31    39    41   ar
    32    41    42   ar
    33    42    43    1
    34    28    29    1
    35    29    30    1
    36    30    31    1
    37    31    32    1
    38    32    33    1
    39    33    34    2
    40     4     7    1
    41     7     8    1
    42    15     9   ar
    43     8     1    1
    44    42    36   ar
    45    33    29   am
    46    17    18    1
@<TRIPOS>MOLECULE
*****
 43 46 0 0 0
SMALL
GASTEIGER

@<TRIPOS>ATOM
      1 N          61.8482   89.3443   10.6567 N.pl3   1  UNL1       -0.3043
      2 C          61.3503   89.6541   12.0373 C.3     1  UNL1        0.1123
      3 C          62.2395   90.3663   13.0130 C.3     1  UNL1        0.1149
      4 N          63.6267   90.7688   12.6081 N.am    1  UNL1       -0.2747
      5 C          64.5159   91.4810   13.5837 C.2     1  UNL1        0.2442
      6 O          64.0180   91.7908   14.9644 O.2     1  UNL1       -0.2731
      7 C          64.1245   90.4589   11.2275 C.3     1  UNL1        0.1149
      8 C          63.2353   89.7466   10.2518 C.3     1  UNL1        0.1123
      9 C          61.0192   87.1378    9.5637 C.ar    1  UNL1        0.0076
     10 C          60.1300   86.4256    8.5880 C.ar    1  UNL1        0.0279
     11 C          59.1803   87.2076    7.7297 C.ar    1  UNL1        0.1400
     12 F          58.2911   86.4953    6.7540 F       1  UNL1       -0.2042
     13 C          59.1200   88.7018    7.8470 C.ar    1  UNL1        0.0309
     14 C          60.0093   89.4140    8.8226 C.ar    1  UNL1        0.0165
     15 C          60.9589   88.6320    9.6810 C.ar    1  UNL1        0.0453
     16 C          61.9688   86.3559   10.4221 C.3     1  UNL1        0.0781
     17 N          61.6120   86.0467   11.8458 N.3     1  UNL1       -0.2939
     18 H          60.6409   85.7347   11.8449 H       1  UNL1        0.1235
     19 C          62.3958   85.0210   12.6097 C.3     1  UNL1        0.0863
     20 C          63.5186   85.4504   13.5070 C.3     1  UNL1        0.0895
     21 N          63.7415   84.7523   14.8158 N.3     1  UNL1       -0.2691
     22 C          63.8718   85.5506   16.0790 C.3     1  UNL1        0.0897
     23 C          63.8341   83.2558   14.8614 C.3     1  UNL1        0.0897
     24 C          63.2752   85.8830    9.8567 C.3     1  UNL1        0.0203
     25 C          63.8335   83.3520    9.6772 C.3     1  UNL1        0.0001
     26 C          63.3302   84.6188    9.0512 C.3     1  UNL1        0.0017
     27 C          62.8818   84.6214    7.6198 C.3     1  UNL1        0.0001
     28 C          65.9030   91.8834   13.1788 C.3     1  UNL1        0.1564
     29 N          66.8788   92.3577   14.2146 N.am    1  UNL1       -0.2727
     30 C          67.7304   91.4854   15.0886 C.3     1  UNL1        0.0943
     31 C          68.5523   92.3762   15.9723 C.3     1  UNL1        0.0311
     32 C          68.2086   93.7990   15.6445 C.3     1  UNL1        0.0870
     33 C          67.1743   93.7877   14.5582 C.2     1  UNL1        0.2260
     34 O          66.5459   94.9942   13.9264 O.2     1  UNL1       -0.2749
     35 C          66.3143   91.8114   11.7380 C.3     1  UNL1        0.0564
     36 C          66.5005   93.0724   10.9474 C.ar    1  UNL1       -0.0094
     37 C          65.6494   94.2728   11.2386 C.ar    1  UNL1       -0.0025
     38 C          65.8356   95.5338   10.4479 C.ar    1  UNL1        0.0111
     39 C          66.8729   95.5945    9.3661 C.ar    1  UNL1        0.0585
     40 CL         67.0591   96.8555    8.5754 Cl      1  UNL1       -0.0822
     41 C          67.7240   94.3942    9.0750 C.ar    1  UNL1        0.0225
     42 C          67.5378   93.1331    9.8656 C.ar    1  UNL1        0.0546
     43 CL         68.3889   91.9328    9.5745 Cl      1  UNL1       -0.0825
@<TRIPOS>BOND
     1    25    26    1
     2    26    27    1
     3    26    24    1
     4    16    24    1
     5    16    17    1
     6    17    19    1
     7    19    20    1
     8    20    21    1
     9    21    22    1
    10    21    23    1
    11    16     9    1
    12     9    10   ar
    13    10    11   ar
    14    11    12    1
    15    11    13   ar
    16    13    14   ar
    17    14    15   ar
    18    15     1    1
    19     1     2    1
    20     2     3    1
    21     3     4    1
    22     4     5   am
    23     5     6    2
    24     5    28    1
    25    28    35    1
    26    35    36    1
    27    36    37   ar
    28    37    38   ar
    29    38    39   ar
    30    39    40    1
    31    39    41   ar
    32    41    42   ar
    33    42    43    1
    34    28    29    1
    35    29    30    1
    36    30    31    1
    37    31    32    1
    38    32    33    1
    39    33    34    2
    40     4     7    1
    41     7     8    1
    42    15     9   ar
    43     8     1    1
    44    42    36   ar
    45    33    29   am
    46    17    18    1
@<TRIPOS>MOLECULE
*****
 43 46 0 0 0
SMALL
GASTEIGER

@<TRIPOS>ATOM
      1 N          63.4473   85.5038   14.0088 N.pl3   1  UNL1       -0.3043
      2 C          63.0228   85.7845   15.4198 C.3     1  UNL1        0.1123
      3 C          63.1755   87.1641   15.9886 C.3     1  UNL1        0.1149
      4 N          63.7527   88.2629   15.1463 N.am    1  UNL1       -0.2747
      5 C          63.9054   89.6425   15.7151 C.2     1  UNL1        0.2442
      6 O          63.4809   89.9232   17.1261 O.2     1  UNL1       -0.2731
      7 C          64.1772   87.9822   13.7353 C.3     1  UNL1        0.1149
      8 C          64.0245   86.6026   13.1665 C.3     1  UNL1        0.1123
      9 C          62.7207   83.9384   12.0667 C.ar    1  UNL1        0.0076
     10 C          62.5680   82.5588   11.4980 C.ar    1  UNL1        0.0279
     11 C          62.9892   81.3650   12.3027 C.ar    1  UNL1        0.1400
     12 F          62.8365   79.9854   11.7339 F       1  UNL1       -0.2042
     13 C          63.5631   81.5508   13.6760 C.ar    1  UNL1        0.0309
     14 C          63.7158   82.9304   14.2447 C.ar    1  UNL1        0.0165
     15 C          63.2946   84.1242   13.4400 C.ar    1  UNL1        0.0453
     16 C          62.2995   85.1322   11.2621 C.3     1  UNL1        0.0781
     17 N          61.1954   86.0187   11.7571 N.3     1  UNL1       -0.2939
     18 H          61.1945   85.9475   12.7746 H       1  UNL1        0.1235
     19 C          61.2023   87.4815   11.4253 C.3     1  UNL1        0.0863
     20 C          59.9236   88.2649   11.4620 C.3     1  UNL1        0.0895
     21 N          59.8101   89.5514   10.6990 N.3     1  UNL1       -0.2691
     22 C          59.3204   90.7909   11.3874 C.3     1  UNL1        0.0897
     23 C          60.1862   89.5983    9.2477 C.3     1  UNL1        0.0897
     24 C          62.9824   85.4395    9.9624 C.3     1  UNL1        0.0203
     25 C          62.8155   84.7963    7.4507 C.3     1  UNL1        0.0001
     26 C          62.2055   85.4024    8.6798 C.3     1  UNL1        0.0017
     27 C          60.8186   85.9713    8.6263 C.3     1  UNL1        0.0001
     28 C          64.4826   90.7413   14.8728 C.3     1  UNL1        0.1564
     29 N          65.7636   91.4058   15.2819 N.am    1  UNL1       -0.2727
     30 C          67.1178   91.1501   14.6897 C.3     1  UNL1        0.0943
     31 C          68.1065   92.0290   15.3968 C.3     1  UNL1        0.0311
     32 C          67.3633   92.8279   16.4261 C.3     1  UNL1        0.0870
     33 C          65.9153   92.4429   16.3551 C.2     1  UNL1        0.2260
     34 O          64.8127   92.9973   17.2075 O.2     1  UNL1       -0.2749
     35 C          63.7787   91.1756   13.6213 C.3     1  UNL1        0.0564
     36 C          64.5293   91.9241   12.5600 C.ar    1  UNL1       -0.0094
     37 C          65.5197   92.9822   12.9467 C.ar    1  UNL1       -0.0025
     38 C          66.2703   93.7308   11.8854 C.ar    1  UNL1        0.0111
     39 C          66.0304   93.4212   10.4374 C.ar    1  UNL1        0.0585
     40 CL         66.7810   94.1697    9.3761 Cl      1  UNL1       -0.0822
     41 C          65.0400   92.3631   10.0508 C.ar    1  UNL1        0.0225
     42 C          64.2894   91.6146   11.1121 C.ar    1  UNL1        0.0546
     43 CL         63.2990   90.5565   10.7254 Cl      1  UNL1       -0.0825
@<TRIPOS>BOND
     1    25    26    1
     2    26    27    1
     3    26    24    1
     4    16    24    1
     5    16    17    1
     6    17    19    1
     7    19    20    1
     8    20    21    1
     9    21    22    1
    10    21    23    1
    11    16     9    1
    12     9    10   ar
    13    10    11   ar
    14    11    12    1
    15    11    13   ar
    16    13    14   ar
    17    14    15   ar
    18    15     1    1
    19     1     2    1
    20     2     3    1
    21     3     4    1
    22     4     5   am
    23     5     6    2
    24     5    28    1
    25    28    35    1
    26    35    36    1
    27    36    37   ar
    28    37    38   ar
    29    38    39   ar
    30    39    40    1
    31    39    41   ar
    32    41    42   ar
    33    42    43    1
    34    28    29    1
    35    29    30    1
    36    30    31    1
    37    31    32    1
    38    32    33    1
    39    33    34    2
    40     4     7    1
    41     7     8    1
    42    15     9   ar
    43     8     1    1
    44    42    36   ar
    45    33    29   am
    46    17    18    1
@<TRIPOS>MOLECULE
*****
 43 46 0 0 0
SMALL
GASTEIGER

@<TRIPOS>ATOM
      1 N          62.0189   89.3639   11.0245 N.pl3   1  UNL1       -0.3043
      2 C          61.6273   89.3233   12.4719 C.3     1  UNL1        0.1123
      3 C          62.3993   90.1214   13.4803 C.3     1  UNL1        0.1149
      4 N          63.5629   90.9602   13.0414 N.am    1  UNL1       -0.2747
      5 C          64.3349   91.7583   14.0498 C.2     1  UNL1        0.2442
      6 O          63.9434   91.7178   15.4972 O.2     1  UNL1       -0.2731
      7 C          63.9544   91.0007   11.5939 C.3     1  UNL1        0.1149
      8 C          63.1824   90.2025   10.5855 C.3     1  UNL1        0.1123
      9 C          61.4341   87.0798    9.9331 C.ar    1  UNL1        0.0076
     10 C          60.6621   86.2816    8.9247 C.ar    1  UNL1        0.0279
     11 C          59.7027   86.9694    7.9993 C.ar    1  UNL1        0.1400
     12 F          58.9306   86.1713    6.9908 F       1  UNL1       -0.2042
     13 C          59.5153   88.4554    8.0822 C.ar    1  UNL1        0.0309
     14 C          60.2874   89.2535    9.0906 C.ar    1  UNL1        0.0165
     15 C          61.2468   88.5657   10.0161 C.ar    1  UNL1        0.0453
     16 C          62.3936   86.3920   10.8586 C.3     1  UNL1        0.0781
     17 N          62.3421   86.6673   12.3321 N.3     1  UNL1       -0.2939
     18 H          61.7265   85.9647   12.7417 H       1  UNL1        0.1235
     19 C          63.6054   86.6605   13.1410 C.3     1  UNL1        0.0863
     20 C          63.9591   85.4610   13.9693 C.3     1  UNL1        0.0895
     21 N          63.2759   85.2299   15.2846 N.3     1  UNL1       -0.2691
     22 C          63.4704   86.2005   16.4115 C.3     1  UNL1        0.0897
     23 C          62.3981   84.0282   15.4728 C.3     1  UNL1        0.0897
     24 C          63.4044   85.4288   10.3104 C.3     1  UNL1        0.0203
     25 C          62.3019   83.5025   11.6610 C.3     1  UNL1        0.0001
     26 C          63.3471   83.9806   10.6971 C.3     1  UNL1        0.0017
     27 C          64.3350   83.0106   10.1199 C.3     1  UNL1        0.0001
     28 C          65.4984   92.5970   13.6108 C.3     1  UNL1        0.1564
     29 N          66.7120   92.7124   14.4849 N.am    1  UNL1       -0.2727
     30 C          67.3946   93.9877   14.8818 C.3     1  UNL1        0.0943
     31 C          68.5605   93.6362   15.7578 C.3     1  UNL1        0.0311
     32 C          68.5984   92.1437   15.9022 C.3     1  UNL1        0.0870
     33 C          67.4559   91.5726   15.1155 C.2     1  UNL1        0.2260
     34 O          67.1170   90.1176   14.9827 O.2     1  UNL1       -0.2749
     35 C          65.4485   93.3204   12.2976 C.3     1  UNL1        0.0564
     36 C          66.4973   93.0597   11.2574 C.ar    1  UNL1       -0.0094
     37 C          67.3992   91.8677   11.3839 C.ar    1  UNL1       -0.0025
     38 C          68.4480   91.6071   10.3437 C.ar    1  UNL1        0.0111
     39 C          68.5950   92.5384    9.1770 C.ar    1  UNL1        0.0585
     40 CL         69.6438   92.2777    8.1368 Cl      1  UNL1       -0.0822
     41 C          67.6931   93.7303    9.0505 C.ar    1  UNL1        0.0225
     42 C          66.6443   93.9909   10.0907 C.ar    1  UNL1        0.0546
     43 CL         65.7424   95.1828    9.9642 Cl      1  UNL1       -0.0825
@<TRIPOS>BOND
     1    25    26    1
     2    26    27    1
     3    26    24    1
     4    16    24    1
     5    16    17    1
     6    17    19    1
     7    19    20    1
     8    20    21    1
     9    21    22    1
    10    21    23    1
    11    16     9    1
    12     9    10   ar
    13    10    11   ar
    14    11    12    1
    15    11    13   ar
    16    13    14   ar
    17    14    15   ar
    18    15     1    1
    19     1     2    1
    20     2     3    1
    21     3     4    1
    22     4     5   am
    23     5     6    2
    24     5    28    1
    25    28    35    1
    26    35    36    1
    27    36    37   ar
    28    37    38   ar
    29    38    39   ar
    30    39    40    1
    31    39    41   ar
    32    41    42   ar
    33    42    43    1
    34    28    29    1
    35    29    30    1
    36    30    31    1
    37    31    32    1
    38    32    33    1
    39    33    34    2
    40     4     7    1
    41     7     8    1
    42    15     9   ar
    43     8     1    1
    44    42    36   ar
    45    33    29   am
    46    17    18    1
@<TRIPOS>MOLECULE
*****
 43 46 0 0 0
SMALL
GASTEIGER

@<TRIPOS>ATOM
      1 N          63.4104   85.5042   14.3287 N.pl3   1  UNL1       -0.3043
      2 C          62.8731   85.9448   15.6581 C.3     1  UNL1        0.1123
      3 C          63.0391   87.3686   16.0995 C.3     1  UNL1        0.1149
      4 N          63.7424   88.3520   15.2116 N.am    1  UNL1       -0.2747
      5 C          63.9085   89.7759   15.6531 C.2     1  UNL1        0.2442
      6 O          63.3712   90.2165   16.9824 O.2     1  UNL1       -0.2731
      7 C          64.2797   87.9115   13.8823 C.3     1  UNL1        0.1149
      8 C          64.1137   86.4875   13.4408 C.3     1  UNL1        0.1123
      9 C          62.8247   83.7754   12.4798 C.ar    1  UNL1        0.0076
     10 C          62.6587   82.3515   12.0384 C.ar    1  UNL1        0.0279
     11 C          62.9123   81.2324   13.0045 C.ar    1  UNL1        0.1400
     12 F          62.7462   79.8084   12.5631 F       1  UNL1       -0.2042
     13 C          63.3319   81.5372   14.4120 C.ar    1  UNL1        0.0309
     14 C          63.4979   82.9611   14.8534 C.ar    1  UNL1        0.0165
     15 C          63.2443   84.0802   13.8873 C.ar    1  UNL1        0.0453
     16 C          62.5711   84.8945   11.5137 C.3     1  UNL1        0.0781
     17 N          63.4520   85.0612   10.3111 N.3     1  UNL1       -0.2939
     18 H          64.3702   84.6974   10.5660 H       1  UNL1        0.1235
     19 C          63.0759   84.4151    9.0107 C.3     1  UNL1        0.0863
     20 C          62.8769   85.2568    7.7850 C.3     1  UNL1        0.0895
     21 N          61.7216   84.9846    6.8679 N.3     1  UNL1       -0.2691
     22 C          61.9338   84.2014    5.6063 C.3     1  UNL1        0.0897
     23 C          60.3540   85.4956    7.2123 C.3     1  UNL1        0.0897
     24 C          61.4367   85.8469   11.7503 C.3     1  UNL1        0.0203
     25 C          60.1225   87.1152    9.9025 C.3     1  UNL1        0.0001
     26 C          61.2692   87.0478   10.8672 C.3     1  UNL1        0.0017
     27 C          62.2482   88.1813   10.9490 C.3     1  UNL1        0.0001
     28 C          64.6118   90.7592   14.7652 C.3     1  UNL1        0.1564
     29 N          65.8808   91.4124   15.2267 N.am    1  UNL1       -0.2727
     30 C          67.2567   91.1394   14.6955 C.3     1  UNL1        0.0943
     31 C          68.2230   92.0116   15.4409 C.3     1  UNL1        0.0311
     32 C          67.4442   92.8236   16.4329 C.3     1  UNL1        0.0870
     33 C          65.9966   92.4534   16.3006 C.2     1  UNL1        0.2260
     34 O          64.8638   93.0238   17.1013 O.2     1  UNL1       -0.2749
     35 C          64.0461   91.0894   13.4157 C.3     1  UNL1        0.0564
     36 C          64.7447   92.0793   12.5314 C.ar    1  UNL1       -0.0094
     37 C          65.6659   93.1006   13.1302 C.ar    1  UNL1       -0.0025
     38 C          66.3646   94.0905   12.2459 C.ar    1  UNL1        0.0111
     39 C          66.1420   94.0591   10.7628 C.ar    1  UNL1        0.0585
     40 CL         66.8407   95.0490    9.8785 Cl      1  UNL1       -0.0822
     41 C          65.2209   93.0379   10.1640 C.ar    1  UNL1        0.0225
     42 C          64.5223   92.0480   11.0483 C.ar    1  UNL1        0.0546
     43 CL         63.6011   91.0267   10.4496 Cl      1  UNL1       -0.0825
@<TRIPOS>BOND
     1    25    26    1
     2    26    27    1
     3    26    24    1
     4    16    24    1
     5    16    17    1
     6    17    19    1
     7    19    20    1
     8    20    21    1
     9    21    22    1
    10    21    23    1
    11    16     9    1
    12     9    10   ar
    13    10    11   ar
    14    11    12    1
    15    11    13   ar
    16    13    14   ar
    17    14    15   ar
    18    15     1    1
    19     1     2    1
    20     2     3    1
    21     3     4    1
    22     4     5   am
    23     5     6    2
    24     5    28    1
    25    28    35    1
    26    35    36    1
    27    36    37   ar
    28    37    38   ar
    29    38    39   ar
    30    39    40    1
    31    39    41   ar
    32    41    42   ar
    33    42    43    1
    34    28    29    1
    35    29    30    1
    36    30    31    1
    37    31    32    1
    38    32    33    1
    39    33    34    2
    40     4     7    1
    41     7     8    1
    42    15     9   ar
    43     8     1    1
    44    42    36   ar
    45    33    29   am
    46    17    18    1
@<TRIPOS>MOLECULE
*****
 43 46 0 0 0
SMALL
GASTEIGER

@<TRIPOS>ATOM
      1 N          64.5124   91.1962   12.6822 N.pl3   1  UNL1       -0.3043
      2 C          63.6481   91.8792   11.6640 C.3     1  UNL1        0.1123
      3 C          62.7304   91.0706   10.7958 C.3     1  UNL1        0.1149
      4 N          62.6769   89.5790   10.9456 N.am    1  UNL1       -0.2747
      5 C          61.7592   88.7705   10.0773 C.2     1  UNL1        0.2442
      6 O          60.8949   89.4534    9.0592 O.2     1  UNL1       -0.2731
      7 C          63.5412   88.8961   11.9637 C.3     1  UNL1        0.1149
      8 C          64.4590   89.7047   12.8320 C.3     1  UNL1        0.1123
      9 C          66.2552   93.1043   12.9501 C.ar    1  UNL1        0.0076
     10 C          67.1729   93.9129   13.8184 C.ar    1  UNL1        0.0279
     11 C          67.2656   93.6220   15.2870 C.ar    1  UNL1        0.1400
     12 F          68.1834   94.4306   16.1553 F       1  UNL1       -0.2042
     13 C          66.4406   92.5225   15.8873 C.ar    1  UNL1        0.0309
     14 C          65.5229   91.7139   15.0191 C.ar    1  UNL1        0.0165
     15 C          65.4302   92.0049   13.5505 C.ar    1  UNL1        0.0453
     16 C          66.1626   93.3952   11.4815 C.3     1  UNL1        0.0781
     17 N          67.1207   92.7471   10.5267 N.3     1  UNL1       -0.2939
     18 H          66.5618   92.1842    9.8854 H       1  UNL1        0.1235
     19 C          68.0265   93.5939    9.6826 C.3     1  UNL1        0.0863
     20 C          67.6041   93.9971    8.3009 C.3     1  UNL1        0.0895
     21 N          67.2343   95.4226    8.0158 N.3     1  UNL1       -0.2691
     22 C          67.9642   96.5386    8.7026 C.3     1  UNL1        0.0897
     23 C          66.1344   95.7320    7.0438 C.3     1  UNL1        0.0897
     24 C          65.1118   94.3343   10.9678 C.3     1  UNL1        0.0203
     25 C          66.4204   96.3970   11.8526 C.3     1  UNL1        0.0001
     26 C          65.3661   95.8126   10.9599 C.3     1  UNL1        0.0017
     27 C          64.5662   96.7064   10.0593 C.3     1  UNL1        0.0001
     28 C          61.7057   87.2790   10.2271 C.3     1  UNL1        0.1564
     29 N          61.7261   86.4018    9.0106 N.am    1  UNL1       -0.2727
     30 C          62.9216   85.6786    8.4649 C.3     1  UNL1        0.0943
     31 C          62.4889   84.9236    7.2431 C.3     1  UNL1        0.0311
     32 C          61.0259   85.1801    7.0337 C.3     1  UNL1        0.0870
     33 C          60.5544   86.0937    8.1260 C.2     1  UNL1        0.2260
     34 O          59.1568   86.6086    8.3028 O.2     1  UNL1       -0.2749
     35 C          61.6319   86.6646   11.5936 C.3     1  UNL1        0.0564
     36 C          62.3657   85.3887   11.8829 C.ar    1  UNL1       -0.0094
     37 C          62.1107   84.1705   11.0456 C.ar    1  UNL1       -0.0025
     38 C          62.8446   82.8946   11.3349 C.ar    1  UNL1        0.0111
     39 C          63.8334   82.8370   12.4615 C.ar    1  UNL1        0.0585
     40 CL         64.5672   81.5611   12.7507 Cl      1  UNL1       -0.0822
     41 C          64.0883   84.0552   13.2986 C.ar    1  UNL1        0.0225
     42 C          63.3545   85.3311   13.0094 C.ar    1  UNL1        0.0546
     43 CL         63.6094   86.5493   13.8465 Cl      1  UNL1       -0.0825
@<TRIPOS>BOND
     1    25    26    1
     2    26    27    1
     3    26    24    1
     4    16    24    1
     5    16    17    1
     6    17    19    1
     7    19    20    1
     8    20    21    1
     9    21    22    1
    10    21    23    1
    11    16     9    1
    12     9    10   ar
    13    10    11   ar
    14    11    12    1
    15    11    13   ar
    16    13    14   ar
    17    14    15   ar
    18    15     1    1
    19     1     2    1
    20     2     3    1
    21     3     4    1
    22     4     5   am
    23     5     6    2
    24     5    28    1
    25    28    35    1
    26    35    36    1
    27    36    37   ar
    28    37    38   ar
    29    38    39   ar
    30    39    40    1
    31    39    41   ar
    32    41    42   ar
    33    42    43    1
    34    28    29    1
    35    29    30    1
    36    30    31    1
    37    31    32    1
    38    32    33    1
    39    33    34    2
    40     4     7    1
    41     7     8    1
    42    15     9   ar
    43     8     1    1
    44    42    36   ar
    45    33    29   am
    46    17    18    1
@<TRIPOS>MOLECULE
*****
 43 46 0 0 0
SMALL
GASTEIGER

@<TRIPOS>ATOM
      1 N          63.8578   91.5881   11.2399 N.pl3   1  UNL1       -0.3043
      2 C          62.6658   91.4700   12.1427 C.3     1  UNL1        0.1123
      3 C          61.8226   90.2298   12.1133 C.3     1  UNL1        0.1149
      4 N          62.1714   89.1077   11.1810 N.am    1  UNL1       -0.2747
      5 C          61.3282   87.8675   11.1515 C.2     1  UNL1        0.2442
      6 O          60.1361   87.7494   12.0544 O.2     1  UNL1       -0.2731
      7 C          63.3634   89.2257   10.2781 C.3     1  UNL1        0.1149
      8 C          64.2066   90.4660   10.3076 C.3     1  UNL1        0.1123
      9 C          65.5890   93.1038   12.4464 C.ar    1  UNL1        0.0076
     10 C          66.4321   94.3440   12.4759 C.ar    1  UNL1        0.0279
     11 C          66.3873   95.3088   11.3282 C.ar    1  UNL1        0.1400
     12 F          67.2305   96.5491   11.3576 F       1  UNL1       -0.2042
     13 C          65.4994   95.0334   10.1511 C.ar    1  UNL1        0.0309
     14 C          64.6562   93.7932   10.1216 C.ar    1  UNL1        0.0165
     15 C          64.7010   92.8284   11.2693 C.ar    1  UNL1        0.0453
     16 C          65.6337   92.1391   13.5941 C.3     1  UNL1        0.0781
     17 N          64.3641   91.7304   14.2804 N.3     1  UNL1       -0.2939
     18 H          63.6851   91.5274   13.5469 H       1  UNL1        0.1235
     19 C          64.3599   90.5547   15.2119 C.3     1  UNL1        0.0863
     20 C          64.1859   89.1676   14.6680 C.3     1  UNL1        0.0895
     21 N          63.8226   88.0409   15.5891 N.3     1  UNL1       -0.2691
     22 C          64.2245   86.6360   15.2506 C.3     1  UNL1        0.0897
     23 C          63.0573   88.3192   16.8489 C.3     1  UNL1        0.0897
     24 C          66.9481   91.5829   14.0556 C.3     1  UNL1        0.0203
     25 C          67.0805   92.8026   16.3457 C.3     1  UNL1        0.0001
     26 C          67.7473   92.3113   15.0951 C.3     1  UNL1        0.0017
     27 C          69.2133   92.5485   14.8841 C.3     1  UNL1        0.0001
     28 C          61.6770   86.7454   10.2193 C.3     1  UNL1        0.1564
     29 N          60.8241   86.4785    9.0146 N.am    1  UNL1       -0.2727
     30 C          59.4133   86.9462    8.8120 C.3     1  UNL1        0.0943
     31 C          58.9494   86.4538    7.4732 C.3     1  UNL1        0.0311
     32 C          60.0735   85.6817    6.8484 C.3     1  UNL1        0.0870
     33 C          61.2321   85.6969    7.8010 C.2     1  UNL1        0.2260
     34 O          62.5647   85.0452    7.5790 O.2     1  UNL1       -0.2749
     35 C          62.8789   85.8901   10.4917 C.3     1  UNL1        0.0564
     36 C          62.7855   84.7540   11.4666 C.ar    1  UNL1       -0.0094
     37 C          62.1918   84.9788   12.8257 C.ar    1  UNL1       -0.0025
     38 C          62.0984   83.8427   13.8006 C.ar    1  UNL1        0.0111
     39 C          62.5987   82.4817   13.4165 C.ar    1  UNL1        0.0585
     40 CL         62.5053   81.3456   14.3914 Cl      1  UNL1       -0.0822
     41 C          63.1924   82.2569   12.0575 C.ar    1  UNL1        0.0225
     42 C          63.2858   83.3931   11.0825 C.ar    1  UNL1        0.0546
     43 CL         63.8795   83.1683    9.7235 Cl      1  UNL1       -0.0825
@<TRIPOS>BOND
     1    25    26    1
     2    26    27    1
     3    26    24    1
     4    16    24    1
     5    16    17    1
     6    17    19    1
     7    19    20    1
     8    20    21    1
     9    21    22    1
    10    21    23    1
    11    16     9    1
    12     9    10   ar
    13    10    11   ar
    14    11    12    1
    15    11    13   ar
    16    13    14   ar
    17    14    15   ar
    18    15     1    1
    19     1     2    1
    20     2     3    1
    21     3     4    1
    22     4     5   am
    23     5     6    2
    24     5    28    1
    25    28    35    1
    26    35    36    1
    27    36    37   ar
    28    37    38   ar
    29    38    39   ar
    30    39    40    1
    31    39    41   ar
    32    41    42   ar
    33    42    43    1
    34    28    29    1
    35    29    30    1
    36    30    31    1
    37    31    32    1
    38    32    33    1
    39    33    34    2
    40     4     7    1
    41     7     8    1
    42    15     9   ar
    43     8     1    1
    44    42    36   ar
    45    33    29   am
    46    17    18    1
@<TRIPOS>MOLECULE
*****
 43 46 0 0 0
SMALL
GASTEIGER

@<TRIPOS>ATOM
      1 N          63.5138   86.3393   14.2873 N.pl3   1  UNL1       -0.3043
      2 C          63.4213   87.0170   15.6223 C.3     1  UNL1        0.1123
      3 C          63.5819   88.5051   15.7207 C.3     1  UNL1        0.1149
      4 N          63.8351   89.3156   14.4841 N.am    1  UNL1       -0.2747
      5 C          63.9957   90.8037   14.5825 C.2     1  UNL1        0.2442
      6 O          63.9032   91.4814   15.9174 O.2     1  UNL1       -0.2731
      7 C          63.9276   88.6379   13.1491 C.3     1  UNL1        0.1149
      8 C          63.7670   87.1497   13.0507 C.3     1  UNL1        0.1123
      9 C          62.8705   84.2318   12.9109 C.ar    1  UNL1        0.0076
     10 C          62.7098   82.7437   12.8126 C.ar    1  UNL1        0.0279
     11 C          63.0319   81.8750   13.9923 C.ar    1  UNL1        0.1400
     12 F          62.8712   80.3868   13.8940 F       1  UNL1       -0.2042
     13 C          63.5146   82.4944   15.2703 C.ar    1  UNL1        0.0309
     14 C          63.6752   83.9825   15.3686 C.ar    1  UNL1        0.0165
     15 C          63.3531   84.8512   14.1889 C.ar    1  UNL1        0.0453
     16 C          62.5484   85.1005   11.7313 C.3     1  UNL1        0.0781
     17 N          61.2501   85.8502   11.6841 N.3     1  UNL1       -0.2939
     18 H          61.0328   86.1233   12.6426 H       1  UNL1        0.1235
     19 C          61.1279   87.0863   10.8433 C.3     1  UNL1        0.0863
     20 C          59.8325   87.4004   10.1552 C.3     1  UNL1        0.0895
     21 N          59.7833   87.5023    8.6595 N.3     1  UNL1       -0.2691
     22 C          59.7594   86.2572    7.8233 C.3     1  UNL1        0.0897
     23 C          59.7580   88.8493    8.0000 C.3     1  UNL1        0.0897
     24 C          63.5247   85.2194   10.5987 C.3     1  UNL1        0.0203
     25 C          64.0310   82.8260    9.7240 C.3     1  UNL1        0.0001
     26 C          63.5100   84.2125    9.4870 C.3     1  UNL1        0.0017
     27 C          62.9745   84.5921    8.1383 C.3     1  UNL1        0.0001
     28 C          64.2489   91.6141   13.3459 C.3     1  UNL1        0.1564
     29 N          63.4787   91.3279   12.0909 N.am    1  UNL1       -0.2727
     30 C          62.1207   90.6954   12.0147 C.3     1  UNL1        0.0943
     31 C          61.7340   90.6007   10.5685 C.3     1  UNL1        0.0311
     32 C          62.8530   91.1746    9.7509 C.3     1  UNL1        0.0870
     33 C          63.9313   91.6241   10.6918 C.2     1  UNL1        0.2260
     34 O          65.2335   92.2584   10.3020 O.2     1  UNL1       -0.2749
     35 C          65.2723   92.7107   13.3642 C.3     1  UNL1        0.0564
     36 C          66.4886   92.5869   14.2334 C.ar    1  UNL1       -0.0094
     37 C          66.4089   92.9389   15.6894 C.ar    1  UNL1       -0.0025
     38 C          67.6252   92.8152   16.5585 C.ar    1  UNL1        0.0111
     39 C          68.9211   92.3395   15.9716 C.ar    1  UNL1        0.0585
     40 CL         70.1374   92.2158   16.8407 Cl      1  UNL1       -0.0822
     41 C          69.0007   91.9875   14.5157 C.ar    1  UNL1        0.0225
     42 C          67.7844   92.1112   13.6466 C.ar    1  UNL1        0.0546
     43 CL         67.8640   91.7592   12.1907 Cl      1  UNL1       -0.0825
@<TRIPOS>BOND
     1    25    26    1
     2    26    27    1
     3    26    24    1
     4    16    24    1
     5    16    17    1
     6    17    19    1
     7    19    20    1
     8    20    21    1
     9    21    22    1
    10    21    23    1
    11    16     9    1
    12     9    10   ar
    13    10    11   ar
    14    11    12    1
    15    11    13   ar
    16    13    14   ar
    17    14    15   ar
    18    15     1    1
    19     1     2    1
    20     2     3    1
    21     3     4    1
    22     4     5   am
    23     5     6    2
    24     5    28    1
    25    28    35    1
    26    35    36    1
    27    36    37   ar
    28    37    38   ar
    29    38    39   ar
    30    39    40    1
    31    39    41   ar
    32    41    42   ar
    33    42    43    1
    34    28    29    1
    35    29    30    1
    36    30    31    1
    37    31    32    1
    38    32    33    1
    39    33    34    2
    40     4     7    1
    41     7     8    1
    42    15     9   ar
    43     8     1    1
    44    42    36   ar
    45    33    29   am
    46    17    18    1
@<TRIPOS>MOLECULE
*****
 43 46 0 0 0
SMALL
GASTEIGER

@<TRIPOS>ATOM
      1 N          63.5326   85.4831   13.5425 N.pl3   1  UNL1       -0.3043
      2 C          63.9834   85.9561   14.8927 C.3     1  UNL1        0.1123
      3 C          64.2011   87.4193   15.1406 C.3     1  UNL1        0.1149
      4 N          63.9680   88.4097   14.0383 N.am    1  UNL1       -0.2747
      5 C          64.1857   89.8729   14.2862 C.2     1  UNL1        0.2442
      6 O          64.6366   90.3459   15.6364 O.2     1  UNL1       -0.2731
      7 C          63.5172   87.9366   12.6881 C.3     1  UNL1        0.1149
      8 C          63.2995   86.4733   12.4403 C.3     1  UNL1        0.1123
      9 C          62.8553   83.5476   11.9472 C.ar    1  UNL1        0.0076
     10 C          62.6377   82.0843   11.6994 C.ar    1  UNL1        0.0279
     11 C          62.8795   81.0933   12.7990 C.ar    1  UNL1        0.1400
     12 F          62.6618   79.6300   12.5512 F       1  UNL1       -0.2042
     13 C          63.3390   81.5655   14.1465 C.ar    1  UNL1        0.0309
     14 C          63.5567   83.0287   14.3944 C.ar    1  UNL1        0.0165
     15 C          63.3149   84.0198   13.2947 C.ar    1  UNL1        0.0453
     16 C          62.6135   84.5386   10.8475 C.3     1  UNL1        0.0781
     17 N          61.5783   85.6106   11.0182 N.3     1  UNL1       -0.2939
     18 H          62.0818   86.4892   11.1410 H       1  UNL1        0.1235
     19 C          60.5560   85.8437    9.9456 C.3     1  UNL1        0.0863
     20 C          60.1110   87.2397    9.6242 C.3     1  UNL1        0.0895
     21 N          59.5800   87.5620    8.2589 N.3     1  UNL1       -0.2691
     22 C          59.6364   88.9701    7.7453 C.3     1  UNL1        0.0897
     23 C          58.9924   86.4759    7.4071 C.3     1  UNL1        0.0897
     24 C          63.4068   84.4577    9.5770 C.3     1  UNL1        0.0203
     25 C          62.5412   84.7829    7.1491 C.3     1  UNL1        0.0001
     26 C          63.0745   85.3609    8.4265 C.3     1  UNL1        0.0017
     27 C          63.2754   86.8419    8.5532 C.3     1  UNL1        0.0001
     28 C          63.9526   90.8631   13.1840 C.3     1  UNL1        0.1564
     29 N          62.9120   90.5905   12.1386 N.am    1  UNL1       -0.2727
     30 C          63.0995   90.7115   10.6553 C.3     1  UNL1        0.0943
     31 C          61.8046   90.3449    9.9929 C.3     1  UNL1        0.0311
     32 C          60.8168   89.9972   11.0668 C.3     1  UNL1        0.0870
     33 C          61.5011   90.1490   12.3929 C.2     1  UNL1        0.2260
     34 O          60.8832   89.9027   13.7373 O.2     1  UNL1       -0.2749
     35 C          64.7601   92.1260   13.1271 C.3     1  UNL1        0.0564
     36 C          65.9010   92.2438   12.1603 C.ar    1  UNL1       -0.0094
     37 C          65.6466   92.6892   10.7507 C.ar    1  UNL1       -0.0025
     38 C          66.7875   92.8070    9.7840 C.ar    1  UNL1        0.0111
     39 C          68.1827   92.4793   10.2269 C.ar    1  UNL1        0.0585
     40 CL         69.3236   92.5971    9.2602 Cl      1  UNL1       -0.0822
     41 C          68.4370   92.0339   11.6365 C.ar    1  UNL1        0.0225
     42 C          67.2961   91.9161   12.6032 C.ar    1  UNL1        0.0546
     43 CL         67.5504   91.4706   14.0127 Cl      1  UNL1       -0.0825
@<TRIPOS>BOND
     1    25    26    1
     2    26    27    1
     3    26    24    1
     4    16    24    1
     5    16    17    1
     6    17    19    1
     7    19    20    1
     8    20    21    1
     9    21    22    1
    10    21    23    1
    11    16     9    1
    12     9    10   ar
    13    10    11   ar
    14    11    12    1
    15    11    13   ar
    16    13    14   ar
    17    14    15   ar
    18    15     1    1
    19     1     2    1
    20     2     3    1
    21     3     4    1
    22     4     5   am
    23     5     6    2
    24     5    28    1
    25    28    35    1
    26    35    36    1
    27    36    37   ar
    28    37    38   ar
    29    38    39   ar
    30    39    40    1
    31    39    41   ar
    32    41    42   ar
    33    42    43    1
    34    28    29    1
    35    29    30    1
    36    30    31    1
    37    31    32    1
    38    32    33    1
    39    33    34    2
    40     4     7    1
    41     7     8    1
    42    15     9   ar
    43     8     1    1
    44    42    36   ar
    45    33    29   am
    46    17    18    1
