@<TRIPOS>MOLECULE
*****
 25 27 0 0 0
SMALL
GASTEIGER

@<TRIPOS>ATOM
      1 C          62.4724   90.6950   11.4422 C.ar    1  UNL1        0.3220
      2 S          63.5687   91.4835   10.7893 S.2     1  UNL1       -0.0010
      3 C          64.6227   91.7548   11.8216 C.ar    1  UNL1        0.1688
      4 C          65.9300   92.4870   11.7528 C.ar    1  UNL1        0.3018
      5 C          66.7924   92.5982   12.9750 C.ar    1  UNL1        0.0801
      6 C          66.3475   91.9773   14.2660 C.ar    1  UNL1        0.0835
      7 C          65.0402   91.2452   14.3347 C.ar    1  UNL1        0.0753
      8 C          64.1777   91.1339   13.1125 C.ar    1  UNL1        0.2492
      9 N          62.8488   90.4789   12.8780 N.ar    1  UNL1       -0.1519
     10 O          62.0386   89.7379   13.9000 O.co2   1  UNL1       -0.6185
     11 O          59.9787   91.0501   10.8056 O.2     1  UNL1       -0.2627
     12 C          61.2197   90.2080   10.7762 C.2     1  UNL1        0.3210
     13 N          61.2079   88.8790   10.0810 N.am    1  UNL1       -0.2707
     14 C          62.4489   88.0369   10.0516 C.3     1  UNL1        0.0939
     15 C          62.4371   86.7078    9.3563 C.3     1  UNL1        0.0216
     16 C          61.1843   86.2209    8.6903 C.3     1  UNL1        0.0035
     17 C          59.9434   87.0629    8.7197 C.3     1  UNL1        0.0216
     18 C          59.9551   88.3921    9.4150 C.3     1  UNL1        0.0939
     19 C          67.2100   92.0886   15.4882 C.3     1  UNL1        0.4190
     20 F          68.0724   92.1999   16.7104 F       1  UNL1       -0.1659
     21 F          68.4126   91.7141   14.6738 F       1  UNL1       -0.1659
     22 F          66.0074   92.4631   16.3027 F       1  UNL1       -0.1659
     23 N          66.3749   93.1079   10.4619 N.pl3   1  UNL1        0.0817
     24 O          65.7573   94.3928    9.9956 O.2     1  UNL1        0.0415
     25 O          67.4375   92.4439    9.6373 O.co2   1  UNL1       -0.5760
@<TRIPOS>UNITY_ATOM_ATTR
9 1
charge 1
10 1
charge -1
23 1
charge 1
25 1
charge -1
@<TRIPOS>BOND
     1    11    12    2
     2    12     1    1
     3     1     2   ar
     4     2     3   ar
     5     3     4   ar
     6     4    23    1
     7    23    24    2
     8    23    25    1
     9     4     5   ar
    10     5     6   ar
    11     6    19    1
    12    19    20    1
    13    19    21    1
    14    19    22    1
    15     6     7   ar
    16     7     8   ar
    17     8     9   ar
    18     9    10    1
    19    12    13   am
    20    13    14    1
    21    14    15    1
    22    15    16    1
    23    16    17    1
    24    17    18    1
    25     9     1   ar
    26    18    13    1
    27     8     3   ar
@<TRIPOS>MOLECULE
*****
 25 27 0 0 0
SMALL
GASTEIGER

@<TRIPOS>ATOM
      1 C          61.9894   90.1145   11.3311 C.ar    1  UNL1        0.3220
      2 S          62.1864   89.5961   12.7249 S.2     1  UNL1       -0.0010
      3 C          63.4266   90.2283   13.2836 C.ar    1  UNL1        0.1688
      4 C          64.1108   90.0936   14.6116 C.ar    1  UNL1        0.3018
      5 C          65.3646   90.8680   14.8912 C.ar    1  UNL1        0.0801
      6 C          65.9341   91.7772   13.8428 C.ar    1  UNL1        0.0835
      7 C          65.2499   91.9119   12.5148 C.ar    1  UNL1        0.0753
      8 C          63.9961   91.1374   12.2353 C.ar    1  UNL1        0.2492
      9 N          63.1078   91.0671   11.0286 N.ar    1  UNL1       -0.1519
     10 O          63.3037   91.8176    9.7447 O.co2   1  UNL1       -0.6185
     11 O          59.6814   90.6490   10.2646 O.2     1  UNL1       -0.2627
     12 C          60.8704   89.7451   10.4030 C.2     1  UNL1        0.3210
     13 N          60.9404   88.4718    9.6132 N.am    1  UNL1       -0.2707
     14 C          62.1295   87.5679    9.7515 C.3     1  UNL1        0.0939
     15 C          62.1995   86.2946    8.9616 C.3     1  UNL1        0.0216
     16 C          61.0806   85.9252    8.0335 C.3     1  UNL1        0.0035
     17 C          59.8915   86.8291    7.8952 C.3     1  UNL1        0.0216
     18 C          59.8215   88.1025    8.6850 C.3     1  UNL1        0.0939
     19 C          67.1880   92.5516   14.1225 C.3     1  UNL1        0.4190
     20 F          68.4417   93.3261   14.4021 F       1  UNL1       -0.1659
     21 F          67.9698   91.5919   13.2753 F       1  UNL1       -0.1659
     22 F          66.4062   93.5113   14.9696 F       1  UNL1       -0.1659
     23 N          63.5413   89.1844   15.6600 N.pl3   1  UNL1        0.0817
     24 O          63.7194   87.6997   15.5423 O.2     1  UNL1        0.0415
     25 O          62.7938   89.7600   16.8261 O.co2   1  UNL1       -0.5760
@<TRIPOS>UNITY_ATOM_ATTR
9 1
charge 1
10 1
charge -1
23 1
charge 1
25 1
charge -1
@<TRIPOS>BOND
     1    11    12    2
     2    12     1    1
     3     1     2   ar
     4     2     3   ar
     5     3     4   ar
     6     4    23    1
     7    23    24    2
     8    23    25    1
     9     4     5   ar
    10     5     6   ar
    11     6    19    1
    12    19    20    1
    13    19    21    1
    14    19    22    1
    15     6     7   ar
    16     7     8   ar
    17     8     9   ar
    18     9    10    1
    19    12    13   am
    20    13    14    1
    21    14    15    1
    22    15    16    1
    23    16    17    1
    24    17    18    1
    25     9     1   ar
    26    18    13    1
    27     8     3   ar
@<TRIPOS>MOLECULE
*****
 25 27 0 0 0
SMALL
GASTEIGER

@<TRIPOS>ATOM
      1 C          64.0170   89.9786   14.3091 C.ar    1  UNL1        0.3220
      2 S          64.0723   88.4961   14.5307 S.2     1  UNL1       -0.0010
      3 C          63.5131   87.8240   13.3118 C.ar    1  UNL1        0.1688
      4 C          63.3172   86.3782   12.9637 C.ar    1  UNL1        0.3018
      5 C          62.7203   85.9996   11.6407 C.ar    1  UNL1        0.0801
      6 C          62.3194   87.0668   10.6658 C.ar    1  UNL1        0.0835
      7 C          62.5153   88.5126   11.0139 C.ar    1  UNL1        0.0753
      8 C          63.1122   88.8912   12.3369 C.ar    1  UNL1        0.2492
      9 N          63.4236   90.2228   12.9533 N.ar    1  UNL1       -0.1519
     10 O          63.1837   91.5632   12.3243 O.co2   1  UNL1       -0.6185
     11 O          63.5705   91.4743   16.3860 O.2     1  UNL1       -0.2627
     12 C          64.4747   91.0320   15.2740 C.2     1  UNL1        0.3210
     13 N          65.8366   91.6430   15.1267 N.am    1  UNL1       -0.2707
     14 C          66.7409   91.2008   14.0146 C.3     1  UNL1        0.0939
     15 C          68.1028   91.8118   13.8674 C.3     1  UNL1        0.0216
     16 C          68.5606   92.8652   14.8322 C.3     1  UNL1        0.0035
     17 C          67.6564   93.3075   15.9443 C.3     1  UNL1        0.0216
     18 C          66.2943   92.6964   16.0916 C.3     1  UNL1        0.0939
     19 C          61.7225   86.6881    9.3428 C.3     1  UNL1        0.4190
     20 F          61.1256   86.3094    8.0198 F       1  UNL1       -0.1659
     21 F          63.0822   86.3040    8.8392 F       1  UNL1       -0.1659
     22 F          60.3628   87.0722    9.8463 F       1  UNL1       -0.1659
     23 N          63.7182   85.3111   13.9386 N.pl3   1  UNL1        0.0817
     24 O          64.8092   84.3442   13.5855 O.2     1  UNL1        0.0415
     25 O          63.0280   85.2107   15.2665 O.co2   1  UNL1       -0.5760
@<TRIPOS>UNITY_ATOM_ATTR
9 1
charge 1
10 1
charge -1
23 1
charge 1
25 1
charge -1
@<TRIPOS>BOND
     1    11    12    2
     2    12     1    1
     3     1     2   ar
     4     2     3   ar
     5     3     4   ar
     6     4    23    1
     7    23    24    2
     8    23    25    1
     9     4     5   ar
    10     5     6   ar
    11     6    19    1
    12    19    20    1
    13    19    21    1
    14    19    22    1
    15     6     7   ar
    16     7     8   ar
    17     8     9   ar
    18     9    10    1
    19    12    13   am
    20    13    14    1
    21    14    15    1
    22    15    16    1
    23    16    17    1
    24    17    18    1
    25     9     1   ar
    26    18    13    1
    27     8     3   ar
@<TRIPOS>MOLECULE
*****
 25 27 0 0 0
SMALL
GASTEIGER

@<TRIPOS>ATOM
      1 C          63.4571   89.7007   12.5908 C.ar    1  UNL1        0.3220
      2 S          63.5000   88.2306   12.8857 S.2     1  UNL1       -0.0010
      3 C          62.7116   87.5218   11.8246 C.ar    1  UNL1        0.1688
      4 C          62.4079   86.0700   11.6012 C.ar    1  UNL1        0.3018
      5 C          61.5741   85.6502   10.4271 C.ar    1  UNL1        0.0801
      6 C          61.0439   86.6822    9.4765 C.ar    1  UNL1        0.0835
      7 C          61.3475   88.1341    9.6999 C.ar    1  UNL1        0.0753
      8 C          62.1814   88.5538   10.8739 C.ar    1  UNL1        0.2492
      9 N          62.6422   89.9005   11.3475 N.ar    1  UNL1       -0.1519
     10 O          62.3408   91.2159   10.6927 O.co2   1  UNL1       -0.6185
     11 O          63.9710   90.7944   14.8908 O.2     1  UNL1       -0.2627
     12 C          64.1139   90.7813   13.3977 C.2     1  UNL1        0.3210
     13 N          64.9135   91.8488   12.7114 N.am    1  UNL1       -0.2707
     14 C          65.0564   91.8358   11.2182 C.3     1  UNL1        0.0939
     15 C          65.8560   92.9033   10.5320 C.3     1  UNL1        0.0216
     16 C          66.5127   93.9839   11.3388 C.3     1  UNL1        0.0035
     17 C          66.3699   93.9970   12.8319 C.3     1  UNL1        0.0216
     18 C          65.5702   92.9295   13.5183 C.3     1  UNL1        0.0939
     19 C          60.2100   86.2624    8.3024 C.3     1  UNL1        0.4190
     20 F          59.3761   85.8426    7.1284 F       1  UNL1       -0.1659
     21 F          61.3918   85.5461    7.7191 F       1  UNL1       -0.1659
     22 F          59.0282   86.9786    8.8857 F       1  UNL1       -0.1659
     23 N          62.9381   85.0379   12.5518 N.pl3   1  UNL1        0.0817
     24 O          62.4366   84.9917   13.9647 O.2     1  UNL1        0.0415
     25 O          63.9699   84.0521   12.0896 O.co2   1  UNL1       -0.5760
@<TRIPOS>UNITY_ATOM_ATTR
9 1
charge 1
10 1
charge -1
23 1
charge 1
25 1
charge -1
@<TRIPOS>BOND
     1    11    12    2
     2    12     1    1
     3     1     2   ar
     4     2     3   ar
     5     3     4   ar
     6     4    23    1
     7    23    24    2
     8    23    25    1
     9     4     5   ar
    10     5     6   ar
    11     6    19    1
    12    19    20    1
    13    19    21    1
    14    19    22    1
    15     6     7   ar
    16     7     8   ar
    17     8     9   ar
    18     9    10    1
    19    12    13   am
    20    13    14    1
    21    14    15    1
    22    15    16    1
    23    16    17    1
    24    17    18    1
    25     9     1   ar
    26    18    13    1
    27     8     3   ar
@<TRIPOS>MOLECULE
*****
 25 27 0 0 0
SMALL
GASTEIGER

@<TRIPOS>ATOM
      1 C          63.9758   90.2122   14.2827 C.ar    1  UNL1        0.3220
      2 S          63.2806   90.5472   12.9965 S.2     1  UNL1       -0.0010
      3 C          62.9564   89.2609   12.2961 C.ar    1  UNL1        0.1688
      4 C          62.2746   88.9726   10.9916 C.ar    1  UNL1        0.3018
      5 C          62.0876   87.5544   10.5405 C.ar    1  UNL1        0.0801
      6 C          62.5824   86.4244   11.3939 C.ar    1  UNL1        0.0835
      7 C          63.2643   86.7127   12.6985 C.ar    1  UNL1        0.0753
      8 C          63.4513   88.1310   13.1496 C.ar    1  UNL1        0.2492
      9 N          64.0813   88.7189   14.3773 N.ar    1  UNL1       -0.1519
     10 O          64.7069   87.9487   15.5023 O.co2   1  UNL1       -0.6185
     11 O          63.5871   91.6352   16.4214 O.2     1  UNL1       -0.2627
     12 C          64.4775   91.1975   15.2964 C.2     1  UNL1        0.3210
     13 N          65.8695   91.7451   15.1851 N.am    1  UNL1       -0.2707
     14 C          66.7599   91.3074   14.0601 C.3     1  UNL1        0.0939
     15 C          68.1519   91.8550   13.9488 C.3     1  UNL1        0.0216
     16 C          68.6536   92.8403   14.9624 C.3     1  UNL1        0.0035
     17 C          67.7632   93.2780   16.0874 C.3     1  UNL1        0.0216
     18 C          66.3711   92.7304   16.1988 C.3     1  UNL1        0.0939
     19 C          62.3954   85.0061   10.9427 C.3     1  UNL1        0.4190
     20 F          62.2083   83.5879   10.4915 F       1  UNL1       -0.1659
     21 F          63.5025   84.5696   11.8558 F       1  UNL1       -0.1659
     22 F          61.2883   85.4426   10.0296 F       1  UNL1       -0.1659
     23 N          61.7797   90.1026   10.1381 N.pl3   1  UNL1        0.0817
     24 O          60.3399   90.1523    9.7207 O.2     1  UNL1        0.0415
     25 O          62.7247   91.1827    9.7021 O.co2   1  UNL1       -0.5760
@<TRIPOS>UNITY_ATOM_ATTR
9 1
charge 1
10 1
charge -1
23 1
charge 1
25 1
charge -1
@<TRIPOS>BOND
     1    11    12    2
     2    12     1    1
     3     1     2   ar
     4     2     3   ar
     5     3     4   ar
     6     4    23    1
     7    23    24    2
     8    23    25    1
     9     4     5   ar
    10     5     6   ar
    11     6    19    1
    12    19    20    1
    13    19    21    1
    14    19    22    1
    15     6     7   ar
    16     7     8   ar
    17     8     9   ar
    18     9    10    1
    19    12    13   am
    20    13    14    1
    21    14    15    1
    22    15    16    1
    23    16    17    1
    24    17    18    1
    25     9     1   ar
    26    18    13    1
    27     8     3   ar
@<TRIPOS>MOLECULE
*****
 25 27 0 0 0
SMALL
GASTEIGER

@<TRIPOS>ATOM
      1 C          61.7145   87.7993   10.7261 C.ar    1  UNL1        0.3220
      2 S          62.3275   86.9314   11.7848 S.2     1  UNL1       -0.0010
      3 C          63.1360   87.8094   12.6933 C.ar    1  UNL1        0.1688
      4 C          63.9607   87.5066   13.9090 C.ar    1  UNL1        0.3018
      5 C          64.6722   88.6146   14.6276 C.ar    1  UNL1        0.0801
      6 C          64.5589   90.0252   14.1304 C.ar    1  UNL1        0.0835
      7 C          63.7341   90.3280   12.9146 C.ar    1  UNL1        0.0753
      8 C          63.0227   89.2200   12.1961 C.ar    1  UNL1        0.2492
      9 N          62.1441   89.2138   10.9803 N.ar    1  UNL1       -0.1519
     10 O          61.7623   90.4118   10.1623 O.co2   1  UNL1       -0.6185
     11 O          59.4233   87.8507    9.5023 O.2     1  UNL1       -0.2627
     12 C          60.8275   87.3345    9.6093 C.2     1  UNL1        0.3210
     13 N          61.3448   86.3533    8.5996 N.am    1  UNL1       -0.2707
     14 C          62.7491   85.8369    8.7066 C.3     1  UNL1        0.0939
     15 C          63.2664   84.8558    7.6968 C.3     1  UNL1        0.0216
     16 C          62.3795   84.3909    6.5800 C.3     1  UNL1        0.0035
     17 C          60.9752   84.9072    6.4730 C.3     1  UNL1        0.0216
     18 C          60.4579   85.8884    7.4828 C.3     1  UNL1        0.0939
     19 C          65.2704   91.1332   14.8490 C.3     1  UNL1        0.4190
     20 F          65.9818   92.2410   15.5676 F       1  UNL1       -0.1659
     21 F          66.2739   91.2101   13.7369 F       1  UNL1       -0.1659
     22 F          64.2668   91.0562   15.9611 F       1  UNL1       -0.1659
     23 N          64.0741   86.0960   14.4063 N.pl3   1  UNL1        0.0817
     24 O          62.8357   85.2892   14.6621 O.2     1  UNL1        0.0415
     25 O          65.4257   85.4921   14.6476 O.co2   1  UNL1       -0.5760
@<TRIPOS>UNITY_ATOM_ATTR
9 1
charge 1
10 1
charge -1
23 1
charge 1
25 1
charge -1
@<TRIPOS>BOND
     1    11    12    2
     2    12     1    1
     3     1     2   ar
     4     2     3   ar
     5     3     4   ar
     6     4    23    1
     7    23    24    2
     8    23    25    1
     9     4     5   ar
    10     5     6   ar
    11     6    19    1
    12    19    20    1
    13    19    21    1
    14    19    22    1
    15     6     7   ar
    16     7     8   ar
    17     8     9   ar
    18     9    10    1
    19    12    13   am
    20    13    14    1
    21    14    15    1
    22    15    16    1
    23    16    17    1
    24    17    18    1
    25     9     1   ar
    26    18    13    1
    27     8     3   ar
@<TRIPOS>MOLECULE
*****
 25 27 0 0 0
SMALL
GASTEIGER

@<TRIPOS>ATOM
      1 C          62.6554   86.4256   11.5223 C.ar    1  UNL1        0.3220
      2 S          62.8347   85.7956   12.8718 S.2     1  UNL1       -0.0010
      3 C          62.8532   84.3068   12.6897 C.ar    1  UNL1        0.1688
      4 C          63.0011   83.1780   13.6662 C.ar    1  UNL1        0.3018
      5 C          62.9813   81.7589   13.1807 C.ar    1  UNL1        0.0801
      6 C          62.8135   81.4687   11.7187 C.ar    1  UNL1        0.0835
      7 C          62.6656   82.5975   10.7421 C.ar    1  UNL1        0.0753
      8 C          62.6854   84.0166   11.2276 C.ar    1  UNL1        0.2492
      9 N          62.5632   85.3261   10.5062 N.ar    1  UNL1       -0.1519
     10 O          62.3808   85.5046    9.0281 O.co2   1  UNL1       -0.6185
     11 O          61.8887   88.3883   10.0026 O.2     1  UNL1       -0.2627
     12 C          62.5815   87.8967   11.2388 C.2     1  UNL1        0.3210
     13 N          63.2003   88.8761   12.1915 N.am    1  UNL1       -0.2707
     14 C          63.8931   88.3845   13.4278 C.3     1  UNL1        0.0939
     15 C          64.5119   89.3640   14.3805 C.3     1  UNL1        0.0216
     16 C          64.4379   90.8351   14.0970 C.3     1  UNL1        0.0035
     17 C          63.7451   91.3267   12.8608 C.3     1  UNL1        0.0216
     18 C          63.1263   90.3472   11.9080 C.3     1  UNL1        0.0939
     19 C          62.7937   80.0495   11.2332 C.3     1  UNL1        0.4190
     20 F          62.7739   78.6304   10.7478 F       1  UNL1       -0.1659
     21 F          63.1085   80.5202    9.8442 F       1  UNL1       -0.1659
     22 F          62.4790   79.5788   12.6222 F       1  UNL1       -0.1659
     23 N          63.1689   83.4682   15.1283 N.pl3   1  UNL1        0.0817
     24 O          62.1372   84.2788   15.8553 O.2     1  UNL1        0.0415
     25 O          64.3684   82.9479   15.8634 O.co2   1  UNL1       -0.5760
@<TRIPOS>UNITY_ATOM_ATTR
9 1
charge 1
10 1
charge -1
23 1
charge 1
25 1
charge -1
@<TRIPOS>BOND
     1    11    12    2
     2    12     1    1
     3     1     2   ar
     4     2     3   ar
     5     3     4   ar
     6     4    23    1
     7    23    24    2
     8    23    25    1
     9     4     5   ar
    10     5     6   ar
    11     6    19    1
    12    19    20    1
    13    19    21    1
    14    19    22    1
    15     6     7   ar
    16     7     8   ar
    17     8     9   ar
    18     9    10    1
    19    12    13   am
    20    13    14    1
    21    14    15    1
    22    15    16    1
    23    16    17    1
    24    17    18    1
    25     9     1   ar
    26    18    13    1
    27     8     3   ar
@<TRIPOS>MOLECULE
*****
 25 27 0 0 0
SMALL
GASTEIGER

@<TRIPOS>ATOM
      1 C          62.6106   85.4757   13.0710 C.ar    1  UNL1        0.3220
      2 S          61.9495   85.6942   11.7425 S.2     1  UNL1       -0.0010
      3 C          62.2625   87.0906   11.2930 C.ar    1  UNL1        0.1688
      4 C          61.8797   87.8585   10.0626 C.ar    1  UNL1        0.3018
      5 C          62.3515   89.2710    9.8831 C.ar    1  UNL1        0.0801
      6 C          63.2061   89.9155   10.9339 C.ar    1  UNL1        0.0835
      7 C          63.5889   89.1477   12.1642 C.ar    1  UNL1        0.0753
      8 C          63.1171   87.7352   12.3438 C.ar    1  UNL1        0.2492
      9 N          63.3322   86.7371   13.4426 N.ar    1  UNL1       -0.1519
     10 O          64.1291   86.9612   14.6936 O.co2   1  UNL1       -0.6185
     11 O          62.3836   84.2924   15.3728 O.2     1  UNL1       -0.2627
     12 C          62.5592   84.2168   13.8851 C.2     1  UNL1        0.3210
     13 N          62.6835   82.8825   13.2114 N.am    1  UNL1       -0.2707
     14 C          62.8592   82.8069   11.7236 C.3     1  UNL1        0.0939
     15 C          62.9834   81.4725   11.0499 C.3     1  UNL1        0.0216
     16 C          62.9320   80.2136   11.8639 C.3     1  UNL1        0.0035
     17 C          62.7564   80.2892   13.3516 C.3     1  UNL1        0.0216
     18 C          62.6321   81.6236   14.0254 C.3     1  UNL1        0.0939
     19 C          63.6779   91.3281   10.7542 C.3     1  UNL1        0.4190
     20 F          64.1497   92.7406   10.5746 F       1  UNL1       -0.1659
     21 F          64.4619   91.2284   12.0291 F       1  UNL1       -0.1659
     22 F          62.8939   91.4278    9.4794 F       1  UNL1       -0.1659
     23 N          61.0251   87.2139    9.0118 N.pl3   1  UNL1        0.0817
     24 O          59.6049   87.6584    8.8235 O.2     1  UNL1        0.0415
     25 O          61.5907   86.1248    8.1493 O.co2   1  UNL1       -0.5760
@<TRIPOS>UNITY_ATOM_ATTR
9 1
charge 1
10 1
charge -1
23 1
charge 1
25 1
charge -1
@<TRIPOS>BOND
     1    11    12    2
     2    12     1    1
     3     1     2   ar
     4     2     3   ar
     5     3     4   ar
     6     4    23    1
     7    23    24    2
     8    23    25    1
     9     4     5   ar
    10     5     6   ar
    11     6    19    1
    12    19    20    1
    13    19    21    1
    14    19    22    1
    15     6     7   ar
    16     7     8   ar
    17     8     9   ar
    18     9    10    1
    19    12    13   am
    20    13    14    1
    21    14    15    1
    22    15    16    1
    23    16    17    1
    24    17    18    1
    25     9     1   ar
    26    18    13    1
    27     8     3   ar
@<TRIPOS>MOLECULE
*****
 25 27 0 0 0
SMALL
GASTEIGER

@<TRIPOS>ATOM
      1 C          63.3752   85.3113   12.0650 C.ar    1  UNL1        0.3220
      2 S          62.6981   86.4834   11.4189 S.2     1  UNL1       -0.0010
      3 C          62.9291   87.6870   12.2839 C.ar    1  UNL1        0.1688
      4 C          62.4988   89.1175   12.1489 C.ar    1  UNL1        0.3018
      5 C          62.8885   90.1197   13.1947 C.ar    1  UNL1        0.0801
      6 C          63.7084   89.6914   14.3755 C.ar    1  UNL1        0.0835
      7 C          64.1387   88.2608   14.5104 C.ar    1  UNL1        0.0753
      8 C          63.7491   87.2586   13.4646 C.ar    1  UNL1        0.2492
      9 N          64.0247   85.7903   13.3294 N.ar    1  UNL1       -0.1519
     10 O          64.8118   84.9489   14.2898 O.co2   1  UNL1       -0.6185
     11 O          63.9474   83.6269   10.1715 O.2     1  UNL1       -0.2627
     12 C          63.3987   83.9067   11.5391 C.2     1  UNL1        0.3210
     13 N          62.8734   82.7818   12.3810 N.am    1  UNL1       -0.2707
     14 C          62.3246   83.0615   13.7487 C.3     1  UNL1        0.0939
     15 C          61.7994   81.9366   14.5905 C.3     1  UNL1        0.0216
     16 C          61.8228   80.5320   14.0647 C.3     1  UNL1        0.0035
     17 C          62.3716   80.2523   12.6970 C.3     1  UNL1        0.0216
     18 C          62.8969   81.3772   11.8551 C.3     1  UNL1        0.0939
     19 C          64.0981   90.6937   15.4213 C.3     1  UNL1        0.4190
     20 F          64.4877   91.6959   16.4670 F       1  UNL1       -0.1659
     21 F          63.4069   89.8706   16.4676 F       1  UNL1       -0.1659
     22 F          64.7892   91.5167   14.3749 F       1  UNL1       -0.1659
     23 N          61.6789   89.5459   10.9682 N.pl3   1  UNL1        0.0817
     24 O          62.2788   90.4385    9.9226 O.2     1  UNL1        0.0415
     25 O          60.2590   89.0816   10.8330 O.co2   1  UNL1       -0.5760
@<TRIPOS>UNITY_ATOM_ATTR
9 1
charge 1
10 1
charge -1
23 1
charge 1
25 1
charge -1
@<TRIPOS>BOND
     1    11    12    2
     2    12     1    1
     3     1     2   ar
     4     2     3   ar
     5     3     4   ar
     6     4    23    1
     7    23    24    2
     8    23    25    1
     9     4     5   ar
    10     5     6   ar
    11     6    19    1
    12    19    20    1
    13    19    21    1
    14    19    22    1
    15     6     7   ar
    16     7     8   ar
    17     8     9   ar
    18     9    10    1
    19    12    13   am
    20    13    14    1
    21    14    15    1
    22    15    16    1
    23    16    17    1
    24    17    18    1
    25     9     1   ar
    26    18    13    1
    27     8     3   ar
