@<TRIPOS>MOLECULE
*****
 29 31 0 0 0
SMALL
GASTEIGER

@<TRIPOS>ATOM
      1 N          61.3589   86.4759    9.4305 N.am    1  UNL1       -0.2623
      2 C          61.7231   85.3733   10.3800 C.3     1  UNL1        0.1226
      3 C          62.4416   85.9845   11.5463 C.ar    1  UNL1        0.0196
      4 C          62.5215   87.4648   11.3176 C.ar    1  UNL1        0.1319
      5 N          63.1932   88.3449   12.3296 N.ar    1  UNL1       -0.2456
      6 C          63.7851   87.7447   13.5704 C.ar    1  UNL1        0.0568
      7 C          64.4568   88.6248   14.5823 C.3     1  UNL1        0.0518
      8 C          63.7052   86.2644   13.7991 C.ar    1  UNL1        0.0068
      9 C          63.0335   85.3843   12.7871 C.ar    1  UNL1       -0.0015
     10 C          61.8523   87.7685   10.0099 C.2     1  UNL1        0.2671
     11 O          61.7028   89.1264    9.3905 O.2     1  UNL1       -0.2682
     12 C          62.9536   83.9040   13.0158 C.ar    1  UNL1        0.0102
     13 C          62.0578   83.3580   14.0879 C.ar    1  UNL1        0.0017
     14 C          61.9780   81.8777   14.3167 C.ar    1  UNL1        0.0114
     15 C          62.7939   80.9434   13.4733 C.ar    1  UNL1        0.0585
     16 CL         62.7140   79.4631   13.7021 Cl      1  UNL1       -0.0822
     17 C          63.6897   81.4893   12.4011 C.ar    1  UNL1        0.0228
     18 C          63.7695   82.9696   12.1724 C.ar    1  UNL1        0.0585
     19 CL         64.6653   83.5156   11.1002 Cl      1  UNL1       -0.0822
     20 C          64.2971   85.6642   15.0398 C.3     1  UNL1        0.0934
     21 N          65.7074   85.1535   15.0267 N.3     1  UNL1       -0.3174
     22 H          65.7724   84.3507   14.4009 H       1  UNL1        0.1192
     23 H          65.9759   84.8723   15.9697 H       1  UNL1        0.1192
     24 C          60.6293   86.3143    8.1298 C.3     1  UNL1        0.1796
     25 C          58.8135   89.6001    6.8428 C.3     1  UNL1        0.1107
     26 N          59.8987   88.6352    7.2190 N.am    1  UNL1       -0.3013
     27 C          59.5443   87.2792    7.7536 C.2     1  UNL1        0.2428
     28 O          58.1048   86.8881    7.9119 O.2     1  UNL1       -0.2732
     29 H          60.8434   88.8918    7.1151 H       1  UNL1        0.1495
@<TRIPOS>BOND
     1    25    26    1
     2    26    27   am
     3    27    28    2
     4    27    24    1
     5    24     1    1
     6     1     2    1
     7     2     3    1
     8     3     4   ar
     9     4     5   ar
    10     5     6   ar
    11     6     7    1
    12     6     8   ar
    13     8    20    1
    14    20    21    1
    15     8     9   ar
    16     9    12    1
    17    12    13   ar
    18    13    14   ar
    19    14    15   ar
    20    15    16    1
    21    15    17   ar
    22    17    18   ar
    23    18    19    1
    24     4    10    1
    25    10    11    2
    26    10     1   am
    27     9     3   ar
    28    18    12   ar
    29    26    29    1
    30    21    22    1
    31    21    23    1
@<TRIPOS>MOLECULE
*****
 29 31 0 0 0
SMALL
GASTEIGER

@<TRIPOS>ATOM
      1 N          63.5069   84.3396   13.5750 N.am    1  UNL1       -0.2623
      2 C          63.0452   84.6181   12.1753 C.3     1  UNL1        0.1226
      3 C          63.0008   86.1059   11.9892 C.ar    1  UNL1        0.0196
      4 C          63.4351   86.7469   13.2739 C.ar    1  UNL1        0.1319
      5 N          63.4896   88.2417   13.3853 N.ar    1  UNL1       -0.2456
      6 C          63.1098   89.0956   12.2119 C.ar    1  UNL1        0.0568
      7 C          63.1643   90.5905   12.3233 C.3     1  UNL1        0.0518
      8 C          62.6755   88.4546   10.9272 C.ar    1  UNL1        0.0068
      9 C          62.6210   86.9597   10.8159 C.ar    1  UNL1       -0.0015
     10 C          63.7479   85.6553   14.2540 C.2     1  UNL1        0.2671
     11 O          64.2189   85.8459   15.6653 O.2     1  UNL1       -0.2682
     12 C          62.1867   86.3187    9.5311 C.ar    1  UNL1        0.0102
     13 C          63.1817   85.5759    8.6897 C.ar    1  UNL1        0.0017
     14 C          62.7475   84.9349    7.4050 C.ar    1  UNL1        0.0114
     15 C          61.3181   85.0367    6.9617 C.ar    1  UNL1        0.0585
     16 CL         60.8838   84.3957    5.6770 Cl      1  UNL1       -0.0822
     17 C          60.3230   85.7795    7.8031 C.ar    1  UNL1        0.0228
     18 C          60.7573   86.4205    9.0879 C.ar    1  UNL1        0.0585
     19 CL         59.7622   87.1634    9.9293 Cl      1  UNL1       -0.0822
     20 C          62.2957   89.3084    9.7539 C.3     1  UNL1        0.0934
     21 N          61.0578   90.1536    9.8109 N.3     1  UNL1       -0.3174
     22 H          60.2363   89.5507    9.8563 H       1  UNL1        0.1192
     23 H          61.0057   90.7370    8.9758 H       1  UNL1        0.1192
     24 C          63.6947   82.9836   14.1881 C.3     1  UNL1        0.1796
     25 C          60.5686   80.5396   14.1245 C.3     1  UNL1        0.1107
     26 N          61.4768   81.6694   14.5101 N.am    1  UNL1       -0.3013
     27 C          62.7865   81.8539   13.8025 C.2     1  UNL1        0.2428
     28 O          63.1880   80.9084   12.7093 O.2     1  UNL1       -0.2732
     29 H          61.2133   82.2899   15.2276 H       1  UNL1        0.1495
@<TRIPOS>BOND
     1    25    26    1
     2    26    27   am
     3    27    28    2
     4    27    24    1
     5    24     1    1
     6     1     2    1
     7     2     3    1
     8     3     4   ar
     9     4     5   ar
    10     5     6   ar
    11     6     7    1
    12     6     8   ar
    13     8    20    1
    14    20    21    1
    15     8     9   ar
    16     9    12    1
    17    12    13   ar
    18    13    14   ar
    19    14    15   ar
    20    15    16    1
    21    15    17   ar
    22    17    18   ar
    23    18    19    1
    24     4    10    1
    25    10    11    2
    26    10     1   am
    27     9     3   ar
    28    18    12   ar
    29    26    29    1
    30    21    22    1
    31    21    23    1
@<TRIPOS>MOLECULE
*****
 29 31 0 0 0
SMALL
GASTEIGER

@<TRIPOS>ATOM
      1 N          62.4982   90.5345   10.3969 N.am    1  UNL1       -0.2623
      2 C          63.5395   91.5966   10.2029 C.3     1  UNL1        0.1226
      3 C          64.2578   91.7852   11.5062 C.ar    1  UNL1        0.0196
      4 C          63.6603   90.8397   12.5057 C.ar    1  UNL1        0.1319
      5 N          64.1837   90.8047   13.9110 N.ar    1  UNL1       -0.2456
      6 C          65.3046   91.7153   14.3168 C.ar    1  UNL1        0.0568
      7 C          65.8279   91.6803   15.7221 C.3     1  UNL1        0.0518
      8 C          65.9020   92.6608   13.3172 C.ar    1  UNL1        0.0068
      9 C          65.3786   92.6957   11.9119 C.ar    1  UNL1       -0.0015
     10 C          62.5728   90.0668   11.8202 C.2     1  UNL1        0.2671
     11 O          61.7113   89.0113   12.4477 O.2     1  UNL1       -0.2682
     12 C          65.9761   93.6412   10.9124 C.ar    1  UNL1        0.0102
     13 C          65.3997   95.0155   10.7424 C.ar    1  UNL1        0.0017
     14 C          65.9972   95.9610    9.7428 C.ar    1  UNL1        0.0114
     15 C          67.1710   95.5322    8.9133 C.ar    1  UNL1        0.0585
     16 CL         67.7684   96.4776    7.9137 Cl      1  UNL1       -0.0822
     17 C          67.7474   94.1577    9.0832 C.ar    1  UNL1        0.0228
     18 C          67.1499   93.2122   10.0828 C.ar    1  UNL1        0.0585
     19 CL         67.7263   91.8379   10.2528 Cl      1  UNL1       -0.0822
     20 C          67.0229   93.5713   13.7230 C.3     1  UNL1        0.0934
     21 N          68.3226   92.9942   14.2000 N.3     1  UNL1       -0.3174
     22 H          68.1735   92.5036   15.0817 H       1  UNL1        0.1192
     23 H          68.9977   93.7461   14.3391 H       1  UNL1        0.1192
     24 C          61.5489   90.0290    9.3513 C.3     1  UNL1        0.1796
     25 C          61.7229   86.0827    9.7340 C.3     1  UNL1        0.1107
     26 N          62.1281   87.5269    9.7439 N.am    1  UNL1       -0.3013
     27 C          61.1438   88.5848    9.3414 C.2     1  UNL1        0.2428
     28 O          59.7542   88.1984    8.9291 O.2     1  UNL1       -0.2732
     29 H          63.0401   87.7805   10.0145 H       1  UNL1        0.1495
@<TRIPOS>BOND
     1    25    26    1
     2    26    27   am
     3    27    28    2
     4    27    24    1
     5    24     1    1
     6     1     2    1
     7     2     3    1
     8     3     4   ar
     9     4     5   ar
    10     5     6   ar
    11     6     7    1
    12     6     8   ar
    13     8    20    1
    14    20    21    1
    15     8     9   ar
    16     9    12    1
    17    12    13   ar
    18    13    14   ar
    19    14    15   ar
    20    15    16    1
    21    15    17   ar
    22    17    18   ar
    23    18    19    1
    24     4    10    1
    25    10    11    2
    26    10     1   am
    27     9     3   ar
    28    18    12   ar
    29    26    29    1
    30    21    22    1
    31    21    23    1
@<TRIPOS>MOLECULE
*****
 29 31 0 0 0
SMALL
GASTEIGER

@<TRIPOS>ATOM
      1 N          61.1058   87.3752   10.0101 N.am    1  UNL1       -0.2623
      2 C          61.5293   86.1242   10.7212 C.3     1  UNL1        0.1226
      3 C          62.4361   86.5168   11.8498 C.ar    1  UNL1        0.0196
      4 C          62.5730   88.0105   11.8361 C.ar    1  UNL1        0.1319
      5 N          63.4286   88.6946   12.8608 N.ar    1  UNL1       -0.2456
      6 C          64.1474   87.8850   13.8991 C.ar    1  UNL1        0.0568
      7 C          65.0030   88.5691   14.9237 C.3     1  UNL1        0.0518
      8 C          64.0104   86.3913   13.9127 C.ar    1  UNL1        0.0068
      9 C          63.1548   85.7072   12.8880 C.ar    1  UNL1       -0.0015
     10 C          61.7508   88.5410   10.6992 C.2     1  UNL1        0.2671
     11 O          61.6002   89.9840   10.3182 O.2     1  UNL1       -0.2682
     12 C          63.0178   84.2136   12.9016 C.ar    1  UNL1        0.0102
     13 C          63.6021   83.3967   11.7875 C.ar    1  UNL1        0.0017
     14 C          63.4651   81.9030   11.8011 C.ar    1  UNL1        0.0114
     15 C          62.7440   81.2262   12.9288 C.ar    1  UNL1        0.0585
     16 CL         62.6070   79.7325   12.9425 Cl      1  UNL1       -0.0822
     17 C          62.1597   82.0431   14.0430 C.ar    1  UNL1        0.0228
     18 C          62.2966   83.5368   14.0294 C.ar    1  UNL1        0.0585
     19 CL         61.7124   84.3537   15.1435 Cl      1  UNL1       -0.0822
     20 C          64.7291   85.5817   14.9509 C.3     1  UNL1        0.0934
     21 N          65.9957   84.8609   14.5956 N.3     1  UNL1       -0.3174
     22 H          65.7903   84.1264   13.9184 H       1  UNL1        0.1192
     23 H          66.3978   84.4458   15.4360 H       1  UNL1        0.1192
     24 C          60.1968   87.4477    8.8191 C.3     1  UNL1        0.1796
     25 C          61.5547   84.5878    6.4258 C.3     1  UNL1        0.1107
     26 N          61.5218   85.6724    7.4616 N.am    1  UNL1       -0.3013
     27 C          60.2298   86.3632    7.7834 C.2     1  UNL1        0.2428
     28 O          58.9707   85.9694    7.0693 O.2     1  UNL1       -0.2732
     29 H          62.3482   85.9308    7.9303 H       1  UNL1        0.1495
@<TRIPOS>BOND
     1    25    26    1
     2    26    27   am
     3    27    28    2
     4    27    24    1
     5    24     1    1
     6     1     2    1
     7     2     3    1
     8     3     4   ar
     9     4     5   ar
    10     5     6   ar
    11     6     7    1
    12     6     8   ar
    13     8    20    1
    14    20    21    1
    15     8     9   ar
    16     9    12    1
    17    12    13   ar
    18    13    14   ar
    19    14    15   ar
    20    15    16    1
    21    15    17   ar
    22    17    18   ar
    23    18    19    1
    24     4    10    1
    25    10    11    2
    26    10     1   am
    27     9     3   ar
    28    18    12   ar
    29    26    29    1
    30    21    22    1
    31    21    23    1
@<TRIPOS>MOLECULE
*****
 29 31 0 0 0
SMALL
GASTEIGER

@<TRIPOS>ATOM
      1 N          63.6886   84.4948   13.7096 N.am    1  UNL1       -0.2623
      2 C          62.9377   85.1287   12.5763 C.3     1  UNL1        0.1226
      3 C          63.1067   86.6154   12.6824 C.ar    1  UNL1        0.0196
      4 C          63.9620   86.9003   13.8812 C.ar    1  UNL1        0.1319
      5 N          64.3029   88.3163   14.2399 N.ar    1  UNL1       -0.2456
      6 C          63.7884   89.4475   13.3997 C.ar    1  UNL1        0.0568
      7 C          64.1292   90.8635   13.7584 C.3     1  UNL1        0.0518
      8 C          62.9330   89.1625   12.2009 C.ar    1  UNL1        0.0068
      9 C          62.5922   87.7464   11.8422 C.ar    1  UNL1       -0.0015
     10 C          64.3217   85.5897   14.5160 C.2     1  UNL1        0.2671
     11 O          65.1661   85.4062   15.7421 O.2     1  UNL1       -0.2682
     12 C          61.7369   87.4615   10.6434 C.ar    1  UNL1        0.0102
     13 C          62.3314   86.7921    9.4399 C.ar    1  UNL1        0.0017
     14 C          61.4760   86.5072    8.2411 C.ar    1  UNL1        0.0114
     15 C          60.0262   86.8917    8.2457 C.ar    1  UNL1        0.0585
     16 CL         59.1709   86.6067    7.0468 Cl      1  UNL1       -0.0822
     17 C          59.4316   87.5611    9.4492 C.ar    1  UNL1        0.0228
     18 C          60.2869   87.8460   10.6481 C.ar    1  UNL1        0.0585
     19 CL         59.6924   88.5155   11.8515 Cl      1  UNL1       -0.0822
     20 C          62.4185   90.2936   11.3607 C.3     1  UNL1        0.0934
     21 N          63.2100   90.7705   10.1792 N.3     1  UNL1       -0.3174
     22 H          64.0865   91.1815   10.5005 H       1  UNL1        0.1192
     23 H          62.6720   91.4719    9.6703 H       1  UNL1        0.1192
     24 C          63.7889   83.0242   13.9876 C.3     1  UNL1        0.1796
     25 C          60.5771   80.6967   14.1201 C.3     1  UNL1        0.1107
     26 N          61.6783   81.6186   14.5532 N.am    1  UNL1       -0.3013
     27 C          62.6878   82.1022   13.5546 C.2     1  UNL1        0.2428
     28 O          62.5960   81.6639   12.1229 O.2     1  UNL1       -0.2732
     29 H          61.7385   81.9063   15.4928 H       1  UNL1        0.1495
@<TRIPOS>BOND
     1    25    26    1
     2    26    27   am
     3    27    28    2
     4    27    24    1
     5    24     1    1
     6     1     2    1
     7     2     3    1
     8     3     4   ar
     9     4     5   ar
    10     5     6   ar
    11     6     7    1
    12     6     8   ar
    13     8    20    1
    14    20    21    1
    15     8     9   ar
    16     9    12    1
    17    12    13   ar
    18    13    14   ar
    19    14    15   ar
    20    15    16    1
    21    15    17   ar
    22    17    18   ar
    23    18    19    1
    24     4    10    1
    25    10    11    2
    26    10     1   am
    27     9     3   ar
    28    18    12   ar
    29    26    29    1
    30    21    22    1
    31    21    23    1
@<TRIPOS>MOLECULE
*****
 29 31 0 0 0
SMALL
GASTEIGER

@<TRIPOS>ATOM
      1 N          63.9390   90.6382   12.5771 N.am    1  UNL1       -0.2623
      2 C          63.2060   89.6388   11.7322 C.3     1  UNL1        0.1226
      3 C          63.2980   88.3033   12.4091 C.ar    1  UNL1        0.0196
      4 C          64.0878   88.4774   13.6724 C.ar    1  UNL1        0.1319
      5 N          64.3443   87.2995   14.5649 N.ar    1  UNL1       -0.2456
      6 C          63.8109   85.9474   14.1942 C.ar    1  UNL1        0.0568
      7 C          64.0674   84.7694   15.0867 C.3     1  UNL1        0.0518
      8 C          63.0211   85.7733   12.9309 C.ar    1  UNL1        0.0068
      9 C          62.7646   86.9513   12.0384 C.ar    1  UNL1       -0.0015
     10 C          64.4840   89.9204   13.7762 C.2     1  UNL1        0.2671
     11 O          65.2846   90.5374   14.8845 O.2     1  UNL1       -0.2682
     12 C          61.9748   86.7772   10.7751 C.ar    1  UNL1        0.0102
     13 C          62.5592   86.0126    9.6245 C.ar    1  UNL1        0.0017
     14 C          61.7694   85.8385    8.3613 C.ar    1  UNL1        0.0114
     15 C          60.3951   86.4290    8.2486 C.ar    1  UNL1        0.0585
     16 CL         59.6053   86.2549    6.9853 Cl      1  UNL1       -0.0822
     17 C          59.8106   87.1936    9.3992 C.ar    1  UNL1        0.0228
     18 C          60.6005   87.3677   10.6625 C.ar    1  UNL1        0.0585
     19 CL         60.0160   88.1322   11.8130 Cl      1  UNL1       -0.0822
     20 C          62.4877   84.4212   12.5602 C.3     1  UNL1        0.0934
     21 N          63.3823   83.4194   11.8924 N.3     1  UNL1       -0.3174
     22 H          63.6426   83.7599   10.9668 H       1  UNL1        0.1192
     23 H          62.8896   82.5309   11.8016 H       1  UNL1        0.1192
     24 C          64.0989   92.0989   12.2758 C.3     1  UNL1        0.1796
     25 C          66.6655   93.8258    9.7898 C.3     1  UNL1        0.1107
     26 N          65.3802   93.3163   10.3716 N.am    1  UNL1       -0.3013
     27 C          65.3841   92.6084   11.6941 C.2     1  UNL1        0.2428
     28 O          66.6734   92.4100   12.4347 O.2     1  UNL1       -0.2732
     29 H          64.5340   93.4465    9.8855 H       1  UNL1        0.1495
@<TRIPOS>BOND
     1    25    26    1
     2    26    27   am
     3    27    28    2
     4    27    24    1
     5    24     1    1
     6     1     2    1
     7     2     3    1
     8     3     4   ar
     9     4     5   ar
    10     5     6   ar
    11     6     7    1
    12     6     8   ar
    13     8    20    1
    14    20    21    1
    15     8     9   ar
    16     9    12    1
    17    12    13   ar
    18    13    14   ar
    19    14    15   ar
    20    15    16    1
    21    15    17   ar
    22    17    18   ar
    23    18    19    1
    24     4    10    1
    25    10    11    2
    26    10     1   am
    27     9     3   ar
    28    18    12   ar
    29    26    29    1
    30    21    22    1
    31    21    23    1
@<TRIPOS>MOLECULE
*****
 29 31 0 0 0
SMALL
GASTEIGER

@<TRIPOS>ATOM
      1 N          63.9180   85.4844   13.7763 N.am    1  UNL1       -0.2623
      2 C          64.2375   86.9303   14.0152 C.3     1  UNL1        0.1226
      3 C          63.5395   87.7395   12.9625 C.ar    1  UNL1        0.0196
      4 C          62.7887   86.7936   12.0729 C.ar    1  UNL1        0.1319
      5 N          61.9890   87.3235   10.9198 N.ar    1  UNL1       -0.2456
      6 C          61.9401   88.7994   10.6563 C.ar    1  UNL1        0.0568
      7 C          61.1404   89.3293    9.5033 C.3     1  UNL1        0.0518
      8 C          62.6910   89.7453   11.5459 C.ar    1  UNL1        0.0068
      9 C          63.4907   89.2153   12.6991 C.ar    1  UNL1       -0.0015
     10 C          63.0226   85.3999   12.5758 C.2     1  UNL1        0.2671
     11 O          62.4598   84.1424   11.9824 O.2     1  UNL1       -0.2682
     12 C          64.2416   90.1612   13.5887 C.ar    1  UNL1        0.0102
     13 C          65.4372   90.8976   13.0612 C.ar    1  UNL1        0.0017
     14 C          66.1881   91.8435   13.9508 C.ar    1  UNL1        0.0114
     15 C          65.7434   92.0530   15.3679 C.ar    1  UNL1        0.0585
     16 CL         66.4943   92.9989   16.2576 Cl      1  UNL1       -0.0822
     17 C          64.5478   91.3166   15.8955 C.ar    1  UNL1        0.0228
     18 C          63.7969   90.3707   15.0059 C.ar    1  UNL1        0.0585
     19 CL         62.6013   89.6343   15.5334 Cl      1  UNL1       -0.0822
     20 C          62.6422   91.2212   11.2825 C.3     1  UNL1        0.0934
     21 N          63.4788   91.8158   10.1887 N.3     1  UNL1       -0.3174
     22 H          64.4664   91.7170   10.4241 H       1  UNL1        0.1192
     23 H          63.2511   92.8047   10.0859 H       1  UNL1        0.1192
     24 C          64.4079   84.3263   14.5941 C.3     1  UNL1        0.1796
     25 C          63.1810   80.6996   13.5491 C.3     1  UNL1        0.1107
     26 N          63.9401   81.9934   13.5507 N.am    1  UNL1       -0.3013
     27 C          63.6488   83.0326   14.5925 C.2     1  UNL1        0.2428
     28 O          62.5983   82.7780   15.6326 O.2     1  UNL1       -0.2732
     29 H          64.6295   82.1605   12.8680 H       1  UNL1        0.1495
@<TRIPOS>BOND
     1    25    26    1
     2    26    27   am
     3    27    28    2
     4    27    24    1
     5    24     1    1
     6     1     2    1
     7     2     3    1
     8     3     4   ar
     9     4     5   ar
    10     5     6   ar
    11     6     7    1
    12     6     8   ar
    13     8    20    1
    14    20    21    1
    15     8     9   ar
    16     9    12    1
    17    12    13   ar
    18    13    14   ar
    19    14    15   ar
    20    15    16    1
    21    15    17   ar
    22    17    18   ar
    23    18    19    1
    24     4    10    1
    25    10    11    2
    26    10     1   am
    27     9     3   ar
    28    18    12   ar
    29    26    29    1
    30    21    22    1
    31    21    23    1
@<TRIPOS>MOLECULE
*****
 29 31 0 0 0
SMALL
GASTEIGER

@<TRIPOS>ATOM
      1 N          63.7786   89.3649   13.1926 N.am    1  UNL1       -0.2623
      2 C          63.5691   87.9713   12.6787 C.3     1  UNL1        0.1226
      3 C          62.6473   88.0464   11.4978 C.ar    1  UNL1        0.0196
      4 C          62.2872   89.4864   11.2817 C.ar    1  UNL1        0.1319
      5 N          61.3691   89.8697   10.1592 N.ar    1  UNL1       -0.2456
      6 C          60.8111   88.8129    9.2525 C.ar    1  UNL1        0.0568
      7 C          59.8930   89.1961    8.1300 C.3     1  UNL1        0.0518
      8 C          61.1712   87.3729    9.4686 C.ar    1  UNL1        0.0068
      9 C          62.0894   86.9897   10.5912 C.ar    1  UNL1       -0.0015
     10 C          62.9864   90.3013   12.3292 C.2     1  UNL1        0.2671
     11 O          62.9072   91.7910   12.4858 O.2     1  UNL1       -0.2682
     12 C          62.4495   85.5496   10.8072 C.ar    1  UNL1        0.0102
     13 C          62.1143   84.8795   12.1066 C.ar    1  UNL1        0.0017
     14 C          62.4745   83.4395   12.3227 C.ar    1  UNL1        0.0114
     15 C          63.1698   82.6696   11.2393 C.ar    1  UNL1        0.0585
     16 CL         63.5299   81.2296   11.4553 Cl      1  UNL1       -0.0822
     17 C          63.5050   83.3398    9.9398 C.ar    1  UNL1        0.0228
     18 C          63.1448   84.7798    9.7237 C.ar    1  UNL1        0.0585
     19 CL         63.4800   85.4499    8.4243 Cl      1  UNL1       -0.0822
     20 C          60.6133   86.3161    8.5620 C.3     1  UNL1        0.0934
     21 N          59.1653   86.3506    8.1721 N.3     1  UNL1       -0.3174
     22 H          58.5871   86.1905    8.9970 H       1  UNL1        0.1192
     23 H          58.9817   85.6226    7.4817 H       1  UNL1        0.1192
     24 C          64.6309   89.7537   14.3642 C.3     1  UNL1        0.1796
     25 C          66.3630   93.2521   13.6492 C.3     1  UNL1        0.1107
     26 N          65.9228   91.8279   13.4818 N.am    1  UNL1       -0.3013
     27 C          65.0710   91.1779   14.5315 C.2     1  UNL1        0.2428
     28 O          64.6594   91.9520   15.7486 O.2     1  UNL1       -0.2732
     29 H          66.1930   91.3198   12.6830 H       1  UNL1        0.1495
@<TRIPOS>BOND
     1    25    26    1
     2    26    27   am
     3    27    28    2
     4    27    24    1
     5    24     1    1
     6     1     2    1
     7     2     3    1
     8     3     4   ar
     9     4     5   ar
    10     5     6   ar
    11     6     7    1
    12     6     8   ar
    13     8    20    1
    14    20    21    1
    15     8     9   ar
    16     9    12    1
    17    12    13   ar
    18    13    14   ar
    19    14    15   ar
    20    15    16    1
    21    15    17   ar
    22    17    18   ar
    23    18    19    1
    24     4    10    1
    25    10    11    2
    26    10     1   am
    27     9     3   ar
    28    18    12   ar
    29    26    29    1
    30    21    22    1
    31    21    23    1
@<TRIPOS>MOLECULE
*****
 29 31 0 0 0
SMALL
GASTEIGER

@<TRIPOS>ATOM
      1 N          63.6231   83.1087   13.4437 N.am    1  UNL1       -0.2623
      2 C          62.9189   83.9317   12.4060 C.3     1  UNL1        0.1226
      3 C          63.1697   85.3783   12.7130 C.ar    1  UNL1        0.0196
      4 C          64.0289   85.4495   13.9405 C.ar    1  UNL1        0.1319
      5 N          64.4451   86.7823   14.4884 N.ar    1  UNL1       -0.2456
      6 C          64.0021   88.0441   13.8089 C.ar    1  UNL1        0.0568
      7 C          64.4183   89.3769   14.3568 C.3     1  UNL1        0.0518
      8 C          63.1429   87.9730   12.5814 C.ar    1  UNL1        0.0068
      9 C          62.7267   86.6400   12.0335 C.ar    1  UNL1       -0.0015
     10 C          64.3091   84.0468   14.3920 C.2     1  UNL1        0.2671
     11 O          65.1310   83.6516   15.5829 O.2     1  UNL1       -0.2682
     12 C          61.8675   86.5689   10.8060 C.ar    1  UNL1        0.0102
     13 C          60.5381   87.2631   10.7798 C.ar    1  UNL1        0.0017
     14 C          59.6789   87.1919    9.5523 C.ar    1  UNL1        0.0114
     15 C          60.1491   86.4266    8.3510 C.ar    1  UNL1        0.0585
     16 CL         59.2898   86.3555    7.1235 Cl      1  UNL1       -0.0822
     17 C          61.4785   85.7324    8.3772 C.ar    1  UNL1        0.0228
     18 C          62.3377   85.8035    9.6046 C.ar    1  UNL1        0.0585
     19 CL         63.6672   85.1093    9.6308 Cl      1  UNL1       -0.0822
     20 C          62.6999   89.2347   11.9018 C.3     1  UNL1        0.0934
     21 N          61.5885   90.0526   12.4897 N.3     1  UNL1       -0.3174
     22 H          60.7181   89.5224   12.4494 H       1  UNL1        0.1192
     23 H          61.4849   90.9171   11.9584 H       1  UNL1        0.1192
     24 C          63.6385   81.6107   13.5197 C.3     1  UNL1        0.1796
     25 C          59.9024   80.4576   14.1993 C.3     1  UNL1        0.1107
     26 N          61.1872   81.2265   14.2900 N.am    1  UNL1       -0.3013
     27 C          62.3538   80.8418   13.4291 C.2     1  UNL1        0.2428
     28 O          62.2356   79.6882   12.4776 O.2     1  UNL1       -0.2732
     29 H          61.2648   81.9836   14.9145 H       1  UNL1        0.1495
@<TRIPOS>BOND
     1    25    26    1
     2    26    27   am
     3    27    28    2
     4    27    24    1
     5    24     1    1
     6     1     2    1
     7     2     3    1
     8     3     4   ar
     9     4     5   ar
    10     5     6   ar
    11     6     7    1
    12     6     8   ar
    13     8    20    1
    14    20    21    1
    15     8     9   ar
    16     9    12    1
    17    12    13   ar
    18    13    14   ar
    19    14    15   ar
    20    15    16    1
    21    15    17   ar
    22    17    18   ar
    23    18    19    1
    24     4    10    1
    25    10    11    2
    26    10     1   am
    27     9     3   ar
    28    18    12   ar
    29    26    29    1
    30    21    22    1
    31    21    23    1
