@<TRIPOS>MOLECULE
*****
 44 48 0 0 0
SMALL
GASTEIGER

@<TRIPOS>ATOM
      1 N          61.8207   87.0366   11.6030 N.ar    1  UNL1       -0.3260
      2 C          62.4883   86.0705   12.5362 C.ar    1  UNL1        0.0433
      3 C          63.5153   86.8250   13.3275 C.ar    1  UNL1        0.0383
      4 C          63.4823   88.2574   12.8834 C.ar    1  UNL1        0.0256
      5 C          64.2707   89.4594   13.3118 C.ar    1  UNL1        0.0389
      6 C          64.0117   90.7922   12.6743 C.ar    1  UNL1        0.1392
      7 C          62.9644   90.9231   11.6085 C.ar    1  UNL1        0.0384
      8 C          62.1760   89.7210   11.1801 C.ar    1  UNL1        0.0203
      9 C          62.4350   88.3882   11.8176 C.ar    1  UNL1        0.0606
     10 C          60.7302   86.7088   10.6266 C.3     1  UNL1        0.1324
     11 C          59.9246   89.4492    7.1494 C.ar    1  UNL1        0.0194
     12 C          60.0251   87.9687    6.9300 C.ar    1  UNL1        0.0013
     13 C          60.2936   87.0553    8.0890 C.ar    1  UNL1       -0.0023
     14 C          60.4617   87.6222    9.4676 C.ar    1  UNL1        0.0004
     15 C          60.3612   89.1027    9.6870 C.ar    1  UNL1       -0.0023
     16 C          60.0926   90.0162    8.5279 C.ar    1  UNL1        0.0013
     17 C          59.1190   92.1897    3.6722 C.ar    1  UNL1        0.2440
     18 C          57.9804   91.6818    4.5063 C.ar    1  UNL1        0.0608
     19 C          58.2489   90.7683    5.6654 C.ar    1  UNL1        0.0257
     20 C          59.6561   90.3627    5.9903 C.ar    1  UNL1        0.1031
     21 N          60.7946   90.8706    5.1562 N.ar    1  UNL1       -0.1451
     22 N          60.5261   91.7841    3.9972 N.ar    1  UNL1       -0.1103
     23 C          59.5725   92.8991    1.2144 C.3     1  UNL1        0.2543
     24 O          58.8505   93.1031    2.5132 O.3     1  UNL1       -0.4552
     25 C          62.1827   84.6070   12.6569 C.3     1  UNL1        0.0495
     26 C          62.9314   83.6129   11.8195 C.3     1  UNL1        0.0376
     27 C          63.1045   84.6469   10.7468 C.3     1  UNL1        0.0059
     28 C          62.7584   82.5789   12.8923 C.3     1  UNL1        0.0059
     29 C          63.6802   82.6188   10.9821 C.2     1  UNL1        0.0500
     30 O          64.9814   83.0050   10.3436 O.co2   1  UNL1       -0.5492
     31 O          63.1277   81.2385   10.7832 O.co2   1  UNL1       -0.5492
     32 S          64.4169   86.2483   14.3785 S.3     1  UNL1       -0.1142
     33 C          63.8742   85.9312   15.7406 C.3     1  UNL1        0.0434
     34 C          64.1047   84.4700   15.4922 C.3     1  UNL1        0.0112
     35 C          63.6438   87.3924   15.9889 C.3     1  UNL1        0.0112
     36 C          63.3316   85.6142   17.1025 C.3     1  UNL1        0.0112
     37 O          64.8000   91.9944   13.1027 O.3     1  UNL1       -0.4690
     38 C          66.2622   92.0861   12.7808 C.3     1  UNL1        0.2508
     39 C          66.7254   92.9301   11.6306 C.ar    1  UNL1        0.1026
     40 C          67.4849   92.3038   10.4988 C.ar    1  UNL1        0.0185
     41 C          67.9481   93.1479    9.3485 C.ar    1  UNL1        0.0029
     42 C          67.6518   94.6182    9.3301 C.ar    1  UNL1        0.0207
     43 C          66.8924   95.2445   10.4619 C.ar    1  UNL1        0.0986
     44 N          66.4292   94.4005   11.6121 N.ar    1  UNL1       -0.2445
@<TRIPOS>UNITY_ATOM_ATTR
30 1
charge -1
@<TRIPOS>BOND
     1    23    24    1
     2    24    17    1
     3    17    18   ar
     4    18    19   ar
     5    19    20   ar
     6    20    11    1
     7    11    12   ar
     8    12    13   ar
     9    13    14   ar
    10    14    10    1
    11    10     1    1
    12     1     2   ar
    13     2    25    1
    14    25    26    1
    15    26    27    1
    16    26    28    1
    17    26    29    1
    18    29    30   ar
    19    29    31   ar
    20     2     3   ar
    21     3    32    1
    22    32    33    1
    23    33    34    1
    24    33    35    1
    25    33    36    1
    26     3     4   ar
    27     4     5   ar
    28     5     6   ar
    29     6    37    1
    30    37    38    1
    31    38    39    1
    32    39    40   ar
    33    40    41   ar
    34    41    42   ar
    35    42    43   ar
    36    43    44   ar
    37     6     7   ar
    38     7     8   ar
    39     8     9   ar
    40    14    15   ar
    41    15    16   ar
    42    20    21   ar
    43    21    22   ar
    44    22    17   ar
    45    16    11   ar
    46     9     1   ar
    47     9     4   ar
    48    44    39   ar
@<TRIPOS>MOLECULE
*****
 44 48 0 0 0
SMALL
GASTEIGER

@<TRIPOS>ATOM
      1 N          61.3007   86.8450   11.1493 N.ar    1  UNL1       -0.3260
      2 C          62.0167   85.7163   11.8301 C.ar    1  UNL1        0.0433
      3 C          63.0720   86.3056   12.7183 C.ar    1  UNL1        0.0383
      4 C          63.0083   87.7985   12.5865 C.ar    1  UNL1        0.0256
      5 C          63.8057   88.8973   13.2242 C.ar    1  UNL1        0.0389
      6 C          63.5083   90.3295   12.8921 C.ar    1  UNL1        0.1392
      7 C          62.4136   90.6629   11.9224 C.ar    1  UNL1        0.0384
      8 C          61.6162   89.5640   11.2847 C.ar    1  UNL1        0.0203
      9 C          61.9136   88.1318   11.6168 C.ar    1  UNL1        0.0606
     10 C          60.1704   86.7105   10.1725 C.3     1  UNL1        0.1324
     11 C          59.7897   89.6160    6.7574 C.ar    1  UNL1        0.0194
     12 C          60.1537   90.1106    8.1259 C.ar    1  UNL1        0.0013
     13 C          60.2806   89.1421    9.2642 C.ar    1  UNL1       -0.0023
     14 C          60.0435   87.6789    9.0342 C.ar    1  UNL1        0.0004
     15 C          59.6794   87.1843    7.6656 C.ar    1  UNL1       -0.0023
     16 C          59.5525   88.1528    6.5272 C.ar    1  UNL1        0.0013
     17 C          59.4089   92.5213    3.3422 C.ar    1  UNL1        0.2440
     18 C          60.7531   91.9636    3.7060 C.ar    1  UNL1        0.0608
     19 C          60.8800   90.9952    4.8444 C.ar    1  UNL1        0.0257
     20 C          59.6627   90.5844    5.6190 C.ar    1  UNL1        0.1031
     21 N          58.3187   91.1422    5.2551 N.ar    1  UNL1       -0.1451
     22 N          58.1918   92.1106    4.1167 N.ar    1  UNL1       -0.1103
     23 C          60.4259   94.3971    1.8599 C.3     1  UNL1        0.2543
     24 O          59.2820   93.4898    2.2038 O.3     1  UNL1       -0.4552
     25 C          61.7280   84.2550   11.6537 C.3     1  UNL1        0.0495
     26 C          62.7842   83.3429   11.1036 C.3     1  UNL1        0.0376
     27 C          63.0817   84.3393   10.0227 C.3     1  UNL1        0.0059
     28 C          62.4866   82.3465   12.1846 C.3     1  UNL1        0.0059
     29 C          63.8404   82.4308   10.5536 C.2     1  UNL1        0.0500
     30 O          63.4844   81.0328   10.1428 O.co2   1  UNL1       -0.5492
     31 O          65.2526   82.9168   10.4143 O.co2   1  UNL1       -0.5492
     32 S          64.0240   85.5370   13.5861 S.3     1  UNL1       -0.1142
     33 C          63.8776   85.5769   15.0785 C.3     1  UNL1        0.0434
     34 C          65.0128   86.5536   15.1638 C.3     1  UNL1        0.0112
     35 C          62.7424   84.6002   14.9931 C.3     1  UNL1        0.0112
     36 C          63.7312   85.6167   16.5708 C.3     1  UNL1        0.0112
     37 O          64.3057   91.4285   13.5298 O.3     1  UNL1       -0.4690
     38 C          65.5768   91.9017   12.8891 C.3     1  UNL1        0.2508
     39 C          66.7562   92.2651   13.7415 C.ar    1  UNL1        0.1026
     40 C          66.5543   93.0376   15.0114 C.ar    1  UNL1        0.0185
     41 C          67.7338   93.4010   15.8638 C.ar    1  UNL1        0.0029
     42 C          69.1153   92.9920   15.4465 C.ar    1  UNL1        0.0207
     43 C          69.3172   92.2195   14.1766 C.ar    1  UNL1        0.0986
     44 N          68.1378   91.8561   13.3242 N.ar    1  UNL1       -0.2445
@<TRIPOS>UNITY_ATOM_ATTR
30 1
charge -1
@<TRIPOS>BOND
     1    23    24    1
     2    24    17    1
     3    17    18   ar
     4    18    19   ar
     5    19    20   ar
     6    20    11    1
     7    11    12   ar
     8    12    13   ar
     9    13    14   ar
    10    14    10    1
    11    10     1    1
    12     1     2   ar
    13     2    25    1
    14    25    26    1
    15    26    27    1
    16    26    28    1
    17    26    29    1
    18    29    30   ar
    19    29    31   ar
    20     2     3   ar
    21     3    32    1
    22    32    33    1
    23    33    34    1
    24    33    35    1
    25    33    36    1
    26     3     4   ar
    27     4     5   ar
    28     5     6   ar
    29     6    37    1
    30    37    38    1
    31    38    39    1
    32    39    40   ar
    33    40    41   ar
    34    41    42   ar
    35    42    43   ar
    36    43    44   ar
    37     6     7   ar
    38     7     8   ar
    39     8     9   ar
    40    14    15   ar
    41    15    16   ar
    42    20    21   ar
    43    21    22   ar
    44    22    17   ar
    45    16    11   ar
    46     9     1   ar
    47     9     4   ar
    48    44    39   ar
@<TRIPOS>MOLECULE
*****
 44 48 0 0 0
SMALL
GASTEIGER

@<TRIPOS>ATOM
      1 N          64.4325   90.3956   14.4813 N.ar    1  UNL1       -0.3260
      2 C          65.3281   91.5958   14.3950 C.ar    1  UNL1        0.0433
      3 C          65.1272   92.2282   13.0497 C.ar    1  UNL1        0.0383
      4 C          64.1076   91.4188   12.3046 C.ar    1  UNL1        0.0256
      5 C          63.5147   91.5668   10.9347 C.ar    1  UNL1        0.0389
      6 C          62.4923   90.5821   10.4497 C.ar    1  UNL1        0.1392
      7 C          62.0630   89.4495   11.3344 C.ar    1  UNL1        0.0384
      8 C          62.6559   89.3015   12.7043 C.ar    1  UNL1        0.0203
      9 C          63.6782   90.2861   13.1893 C.ar    1  UNL1        0.0606
     10 C          64.3123   89.4676   15.6537 C.3     1  UNL1        0.1324
     11 C          63.5592   85.0819   14.9841 C.ar    1  UNL1        0.0194
     12 C          63.1301   85.7293   16.2674 C.ar    1  UNL1        0.0013
     13 C          63.3811   87.1912   16.4906 C.ar    1  UNL1       -0.0023
     14 C          64.0613   88.0058   15.4305 C.ar    1  UNL1        0.0004
     15 C          64.4904   87.3584   14.1472 C.ar    1  UNL1       -0.0023
     16 C          64.2394   85.8965   13.9240 C.ar    1  UNL1        0.0013
     17 C          62.8061   80.6963   14.3145 C.ar    1  UNL1        0.2440
     18 C          61.6536   81.6547   14.3734 C.ar    1  UNL1        0.0608
     19 C          61.9047   83.1165   14.5966 C.ar    1  UNL1        0.0257
     20 C          63.3081   83.6200   14.7609 C.ar    1  UNL1        0.1031
     21 N          64.4605   82.6616   14.7020 N.ar    1  UNL1       -0.1451
     22 N          64.2094   81.1997   14.4788 N.ar    1  UNL1       -0.1103
     23 C          62.3396   78.7140   12.7011 C.3     1  UNL1        0.2543
     24 O          62.5550   79.2344   14.0913 O.3     1  UNL1       -0.4552
     25 C          66.2606   92.0788   15.4660 C.3     1  UNL1        0.0495
     26 C          67.6778   92.4313   15.1234 C.3     1  UNL1        0.0376
     27 C          67.8849   91.0551   14.5641 C.3     1  UNL1        0.0059
     28 C          67.4706   93.8076   15.6827 C.3     1  UNL1        0.0059
     29 C          69.0950   92.7838   14.7807 C.2     1  UNL1        0.0500
     30 O          69.7967   93.8795   15.5271 O.co2   1  UNL1       -0.5492
     31 O          69.8104   92.0406   13.6918 O.co2   1  UNL1       -0.5492
     32 S          65.8238   93.4546   12.5392 S.3     1  UNL1       -0.1142
     33 C          66.3807   93.4759   11.1465 C.3     1  UNL1        0.0434
     34 C          65.6113   94.7308   10.8580 C.3     1  UNL1        0.0112
     35 C          67.1500   92.2210   11.4350 C.3     1  UNL1        0.0112
     36 C          66.9376   93.4971    9.7539 C.3     1  UNL1        0.0112
     37 O          61.8993   90.7301    9.0798 O.3     1  UNL1       -0.4690
     38 C          60.5354   90.1775    8.7893 C.3     1  UNL1        0.2508
     39 C          60.3672   88.7195    8.4797 C.ar    1  UNL1        0.1026
     40 C          59.1833   88.2531    7.6856 C.ar    1  UNL1        0.0185
     41 C          59.0151   86.7950    7.3760 C.ar    1  UNL1        0.0029
     42 C          60.0308   85.8034    7.8607 C.ar    1  UNL1        0.0207
     43 C          61.2148   86.2698    8.6548 C.ar    1  UNL1        0.0986
     44 N          61.3830   87.7278    8.9644 N.ar    1  UNL1       -0.2445
@<TRIPOS>UNITY_ATOM_ATTR
30 1
charge -1
@<TRIPOS>BOND
     1    23    24    1
     2    24    17    1
     3    17    18   ar
     4    18    19   ar
     5    19    20   ar
     6    20    11    1
     7    11    12   ar
     8    12    13   ar
     9    13    14   ar
    10    14    10    1
    11    10     1    1
    12     1     2   ar
    13     2    25    1
    14    25    26    1
    15    26    27    1
    16    26    28    1
    17    26    29    1
    18    29    30   ar
    19    29    31   ar
    20     2     3   ar
    21     3    32    1
    22    32    33    1
    23    33    34    1
    24    33    35    1
    25    33    36    1
    26     3     4   ar
    27     4     5   ar
    28     5     6   ar
    29     6    37    1
    30    37    38    1
    31    38    39    1
    32    39    40   ar
    33    40    41   ar
    34    41    42   ar
    35    42    43   ar
    36    43    44   ar
    37     6     7   ar
    38     7     8   ar
    39     8     9   ar
    40    14    15   ar
    41    15    16   ar
    42    20    21   ar
    43    21    22   ar
    44    22    17   ar
    45    16    11   ar
    46     9     1   ar
    47     9     4   ar
    48    44    39   ar
@<TRIPOS>MOLECULE
*****
 44 48 0 0 0
SMALL
GASTEIGER

@<TRIPOS>ATOM
      1 N          63.5687   88.5627   13.1507 N.ar    1  UNL1       -0.3260
      2 C          64.2650   89.8908   13.1850 C.ar    1  UNL1        0.0433
      3 C          63.6188   90.7793   12.1636 C.ar    1  UNL1        0.0383
      4 C          62.5233   90.0003   11.4982 C.ar    1  UNL1        0.0256
      5 C          61.5499   90.3614   10.4156 C.ar    1  UNL1        0.0389
      6 C          60.5455   89.3525    9.9431 C.ar    1  UNL1        0.1392
      7 C          60.5145   87.9825   10.5531 C.ar    1  UNL1        0.0384
      8 C          61.4879   87.6214   11.6357 C.ar    1  UNL1        0.0203
      9 C          62.4923   88.6303   12.1083 C.ar    1  UNL1        0.0606
     10 C          63.8921   87.3753   14.0084 C.3     1  UNL1        0.1324
     11 C          63.2902   83.2128   12.4080 C.ar    1  UNL1        0.0194
     12 C          63.8462   83.4132   13.7866 C.ar    1  UNL1        0.0013
     13 C          64.0468   84.8007   14.3201 C.ar    1  UNL1       -0.0023
     14 C          63.6915   85.9879   13.4750 C.ar    1  UNL1        0.0004
     15 C          63.1355   85.7875   12.0962 C.ar    1  UNL1       -0.0023
     16 C          62.9349   84.4000   11.5627 C.ar    1  UNL1        0.0013
     17 C          62.6883   79.0504   10.8075 C.ar    1  UNL1        0.2440
     18 C          63.0401   80.1697    9.8728 C.ar    1  UNL1        0.0608
     19 C          63.2407   81.5572   10.4063 C.ar    1  UNL1        0.0257
     20 C          63.0896   81.8253   11.8745 C.ar    1  UNL1        0.1031
     21 N          62.7379   80.7060   12.8090 N.ar    1  UNL1       -0.1451
     22 N          62.5372   79.3185   12.2755 N.ar    1  UNL1       -0.1103
     23 C          63.6342   76.6961   10.2482 C.3     1  UNL1        0.2543
     24 O          62.4877   77.6629   10.2740 O.3     1  UNL1       -0.4552
     25 C          65.4069   90.2649   14.0828 C.3     1  UNL1        0.0495
     26 C          65.1963   91.2520   15.1924 C.3     1  UNL1        0.0376
     27 C          63.8264   90.6901   15.4323 C.3     1  UNL1        0.0059
     28 C          66.5662   91.8139   14.9524 C.3     1  UNL1        0.0059
     29 C          64.9857   92.2392   16.3020 C.2     1  UNL1        0.0500
     30 O          63.6008   92.5141   16.8084 O.co2   1  UNL1       -0.5492
     31 O          66.1600   92.9514   16.9051 O.co2   1  UNL1       -0.5492
     32 S          64.0012   92.1978   11.8609 S.3     1  UNL1       -0.1142
     33 C          65.2844   92.4916   11.1417 C.3     1  UNL1        0.0434
     34 C          65.7285   93.3534   12.2863 C.3     1  UNL1        0.0112
     35 C          64.8402   91.6298    9.9972 C.3     1  UNL1        0.0112
     36 C          66.5675   92.7853   10.4225 C.3     1  UNL1        0.0112
     37 O          59.5720   89.7136    8.8604 O.3     1  UNL1       -0.4690
     38 C          59.8206   89.2690    7.4496 C.3     1  UNL1        0.2508
     39 C          59.4810   90.1781    6.3059 C.ar    1  UNL1        0.1026
     40 C          60.5747   90.7596    5.4598 C.ar    1  UNL1        0.0185
     41 C          60.2351   91.6689    4.3161 C.ar    1  UNL1        0.0029
     42 C          58.8019   91.9965    4.0184 C.ar    1  UNL1        0.0207
     43 C          57.7083   91.4150    4.8644 C.ar    1  UNL1        0.0986
     44 N          58.0478   90.5058    6.0081 N.ar    1  UNL1       -0.2445
@<TRIPOS>UNITY_ATOM_ATTR
30 1
charge -1
@<TRIPOS>BOND
     1    23    24    1
     2    24    17    1
     3    17    18   ar
     4    18    19   ar
     5    19    20   ar
     6    20    11    1
     7    11    12   ar
     8    12    13   ar
     9    13    14   ar
    10    14    10    1
    11    10     1    1
    12     1     2   ar
    13     2    25    1
    14    25    26    1
    15    26    27    1
    16    26    28    1
    17    26    29    1
    18    29    30   ar
    19    29    31   ar
    20     2     3   ar
    21     3    32    1
    22    32    33    1
    23    33    34    1
    24    33    35    1
    25    33    36    1
    26     3     4   ar
    27     4     5   ar
    28     5     6   ar
    29     6    37    1
    30    37    38    1
    31    38    39    1
    32    39    40   ar
    33    40    41   ar
    34    41    42   ar
    35    42    43   ar
    36    43    44   ar
    37     6     7   ar
    38     7     8   ar
    39     8     9   ar
    40    14    15   ar
    41    15    16   ar
    42    20    21   ar
    43    21    22   ar
    44    22    17   ar
    45    16    11   ar
    46     9     1   ar
    47     9     4   ar
    48    44    39   ar
@<TRIPOS>MOLECULE
*****
 44 48 0 0 0
SMALL
GASTEIGER

@<TRIPOS>ATOM
      1 N          63.6412   87.8918   13.4910 N.ar    1  UNL1       -0.3260
      2 C          62.6832   87.9936   12.3413 C.ar    1  UNL1        0.0433
      3 C          62.7744   89.3831   11.7836 C.ar    1  UNL1        0.0383
      4 C          63.7887   90.1400   12.5888 C.ar    1  UNL1        0.0256
      5 C          64.2938   91.5495   12.4974 C.ar    1  UNL1        0.0389
      6 C          65.3344   92.0372   13.4612 C.ar    1  UNL1        0.1392
      7 C          65.8701   91.1155   14.5165 C.ar    1  UNL1        0.0384
      8 C          65.3651   89.7061   14.6079 C.ar    1  UNL1        0.0203
      9 C          64.3244   89.2183   13.6440 C.ar    1  UNL1        0.0606
     10 C          63.8749   86.6767   14.3390 C.3     1  UNL1        0.1324
     11 C          63.2915   82.5696   12.5952 C.ar    1  UNL1        0.0194
     12 C          64.4828   83.3904   12.1988 C.ar    1  UNL1        0.0013
     13 C          64.6772   84.7595   12.7801 C.ar    1  UNL1       -0.0023
     14 C          63.6805   85.3077   13.7577 C.ar    1  UNL1        0.0004
     15 C          62.4892   84.4868   14.1541 C.ar    1  UNL1       -0.0023
     16 C          62.2947   83.1178   13.5728 C.ar    1  UNL1        0.0013
     17 C          62.7081   78.4624   10.8514 C.ar    1  UNL1        0.2440
     18 C          63.0869   79.6085    9.9607 C.ar    1  UNL1        0.0608
     19 C          63.2813   80.9775   10.5420 C.ar    1  UNL1        0.0257
     20 C          63.0971   81.2005   12.0139 C.ar    1  UNL1        0.1031
     21 N          62.7183   80.0545   12.9045 N.ar    1  UNL1       -0.1451
     22 N          62.5238   78.6854   12.3232 N.ar    1  UNL1       -0.1103
     23 C          63.7035   76.2728    9.8692 C.3     1  UNL1        0.2543
     24 O          62.5136   77.0934   10.2702 O.3     1  UNL1       -0.4552
     25 C          61.7908   86.8982   11.8376 C.3     1  UNL1        0.0495
     26 C          61.6656   86.6510   10.3634 C.3     1  UNL1        0.0376
     27 C          63.1118   86.2572   10.3066 C.3     1  UNL1        0.0059
     28 C          60.2194   87.0449   10.4202 C.3     1  UNL1        0.0059
     29 C          61.5404   86.4039    8.8892 C.2     1  UNL1        0.0500
     30 O          60.3395   86.9060    8.1438 O.co2   1  UNL1       -0.5492
     31 O          62.6162   85.6546    8.1603 O.co2   1  UNL1       -0.5492
     32 S          61.9892   89.9212   10.6244 S.3     1  UNL1       -0.1142
     33 C          60.5487   90.2987   10.8049 C.3     1  UNL1        0.0434
     34 C          60.3364   90.1969    9.3235 C.3     1  UNL1        0.0112
     35 C          60.7610   90.4004   12.2862 C.3     1  UNL1        0.0112
     36 C          59.1083   90.6761   10.9854 C.3     1  UNL1        0.0112
     37 O          65.8395   93.4467   13.3698 O.3     1  UNL1       -0.4690
     38 C          65.8509   94.1551   12.0477 C.3     1  UNL1        0.2508
     39 C          66.7718   93.6935   10.9574 C.ar    1  UNL1        0.1026
     40 C          66.9555   94.5306    9.7263 C.ar    1  UNL1        0.0185
     41 C          67.8765   94.0689    8.6360 C.ar    1  UNL1        0.0029
     42 C          68.6136   92.7701    8.7767 C.ar    1  UNL1        0.0207
     43 C          68.4299   91.9330   10.0078 C.ar    1  UNL1        0.0986
     44 N          67.5090   92.3947   11.0981 N.ar    1  UNL1       -0.2445
@<TRIPOS>UNITY_ATOM_ATTR
30 1
charge -1
@<TRIPOS>BOND
     1    23    24    1
     2    24    17    1
     3    17    18   ar
     4    18    19   ar
     5    19    20   ar
     6    20    11    1
     7    11    12   ar
     8    12    13   ar
     9    13    14   ar
    10    14    10    1
    11    10     1    1
    12     1     2   ar
    13     2    25    1
    14    25    26    1
    15    26    27    1
    16    26    28    1
    17    26    29    1
    18    29    30   ar
    19    29    31   ar
    20     2     3   ar
    21     3    32    1
    22    32    33    1
    23    33    34    1
    24    33    35    1
    25    33    36    1
    26     3     4   ar
    27     4     5   ar
    28     5     6   ar
    29     6    37    1
    30    37    38    1
    31    38    39    1
    32    39    40   ar
    33    40    41   ar
    34    41    42   ar
    35    42    43   ar
    36    43    44   ar
    37     6     7   ar
    38     7     8   ar
    39     8     9   ar
    40    14    15   ar
    41    15    16   ar
    42    20    21   ar
    43    21    22   ar
    44    22    17   ar
    45    16    11   ar
    46     9     1   ar
    47     9     4   ar
    48    44    39   ar
@<TRIPOS>MOLECULE
*****
 44 48 0 0 0
SMALL
GASTEIGER

@<TRIPOS>ATOM
      1 N          60.9255   87.6028   10.6828 N.ar    1  UNL1       -0.3260
      2 C          60.2475   87.2839    9.3833 C.ar    1  UNL1        0.0433
      3 C          60.8553   86.0247    8.8403 C.ar    1  UNL1        0.0383
      4 C          61.9089   85.5654    9.8041 C.ar    1  UNL1        0.0256
      5 C          62.8344   84.3850    9.7919 C.ar    1  UNL1        0.0389
      6 C          63.8032   84.1799   10.9185 C.ar    1  UNL1        0.1392
      7 C          63.8466   85.1553   12.0573 C.ar    1  UNL1        0.0384
      8 C          62.9211   86.3357   12.0695 C.ar    1  UNL1        0.0203
      9 C          61.9523   86.5407   10.9429 C.ar    1  UNL1        0.0606
     10 C          60.6288   88.7776   11.5671 C.3     1  UNL1        0.1324
     11 C          64.0032   91.1922   13.3085 C.ar    1  UNL1        0.0194
     12 C          63.1730   90.3140   14.1969 C.ar    1  UNL1        0.0013
     13 C          62.0482   89.5091   13.6165 C.ar    1  UNL1       -0.0023
     14 C          61.7535   89.5824   12.1475 C.ar    1  UNL1        0.0004
     15 C          62.5839   90.4607   11.2590 C.ar    1  UNL1       -0.0023
     16 C          63.7087   91.2656   11.8395 C.ar    1  UNL1        0.0013
     17 C          67.3777   93.6069   15.0498 C.ar    1  UNL1        0.2440
     18 C          66.7612   92.4959   15.8471 C.ar    1  UNL1        0.0608
     19 C          65.6363   91.6910   15.2666 C.ar    1  UNL1        0.0257
     20 C          65.1280   91.9971   13.8889 C.ar    1  UNL1        0.1031
     21 N          65.7446   93.1081   13.0917 N.ar    1  UNL1       -0.1451
     22 N          66.8694   93.9130   13.6721 N.ar    1  UNL1       -0.1103
     23 C          69.7495   93.7256   16.1036 C.3     1  UNL1        0.2543
     24 O          68.5025   94.4118   15.6302 O.3     1  UNL1       -0.4552
     25 C          59.1538   88.0838    8.7399 C.3     1  UNL1        0.0495
     26 C          59.4599   88.9624    7.5633 C.3     1  UNL1        0.0376
     27 C          58.6468   88.0630    6.6802 C.3     1  UNL1        0.0059
     28 C          60.2731   89.8617    8.4464 C.3     1  UNL1        0.0059
     29 C          59.7660   89.8409    6.3866 C.2     1  UNL1        0.0500
     30 O          58.6475   90.4208    5.5726 O.co2   1  UNL1       -0.5492
     31 O          61.1905   90.1395    6.0240 O.co2   1  UNL1       -0.5492
     32 S          60.4761   85.3443    7.5584 S.3     1  UNL1       -0.1142
     33 C          61.5426   84.8916    6.6055 C.3     1  UNL1        0.0434
     34 C          62.5332   85.7869    7.2890 C.3     1  UNL1        0.0112
     35 C          60.5519   83.9965    5.9220 C.3     1  UNL1        0.0112
     36 C          62.6090   84.4390    5.6526 C.3     1  UNL1        0.0112
     37 O          64.7287   82.9995   10.9063 O.3     1  UNL1       -0.4690
     38 C          64.8216   82.1069   12.1083 C.3     1  UNL1        0.2508
     39 C          63.5771   81.7099   12.8455 C.ar    1  UNL1        0.1026
     40 C          62.8797   80.4267   12.5033 C.ar    1  UNL1        0.0185
     41 C          61.6352   80.0297   13.2406 C.ar    1  UNL1        0.0029
     42 C          61.0880   80.9159   14.3201 C.ar    1  UNL1        0.0207
     43 C          61.7854   82.1991   14.6623 C.ar    1  UNL1        0.0986
     44 N          63.0299   82.5961   13.9250 N.ar    1  UNL1       -0.2445
@<TRIPOS>UNITY_ATOM_ATTR
30 1
charge -1
@<TRIPOS>BOND
     1    23    24    1
     2    24    17    1
     3    17    18   ar
     4    18    19   ar
     5    19    20   ar
     6    20    11    1
     7    11    12   ar
     8    12    13   ar
     9    13    14   ar
    10    14    10    1
    11    10     1    1
    12     1     2   ar
    13     2    25    1
    14    25    26    1
    15    26    27    1
    16    26    28    1
    17    26    29    1
    18    29    30   ar
    19    29    31   ar
    20     2     3   ar
    21     3    32    1
    22    32    33    1
    23    33    34    1
    24    33    35    1
    25    33    36    1
    26     3     4   ar
    27     4     5   ar
    28     5     6   ar
    29     6    37    1
    30    37    38    1
    31    38    39    1
    32    39    40   ar
    33    40    41   ar
    34    41    42   ar
    35    42    43   ar
    36    43    44   ar
    37     6     7   ar
    38     7     8   ar
    39     8     9   ar
    40    14    15   ar
    41    15    16   ar
    42    20    21   ar
    43    21    22   ar
    44    22    17   ar
    45    16    11   ar
    46     9     1   ar
    47     9     4   ar
    48    44    39   ar
