@<TRIPOS>MOLECULE
*****
 31 33 0 0 0
SMALL
GASTEIGER

@<TRIPOS>ATOM
      1 C          64.5509   89.6661   14.1769 C.3     1  UNL1        0.1565
      2 C          63.9177   89.9294   12.8428 C.ar    1  UNL1        0.0369
      3 C          63.1061   88.8600   12.1736 C.ar    1  UNL1        0.0121
      4 C          62.4730   89.1233   10.8396 C.ar    1  UNL1        0.0576
      5 CL         61.6614   88.0539   10.1704 Cl      1  UNL1       -0.0823
      6 C          62.6513   90.4560   10.1747 C.ar    1  UNL1        0.0145
      7 C          63.4628   91.5254   10.8439 C.ar    1  UNL1        0.0375
      8 C          64.0960   91.2621   12.1780 C.ar    1  UNL1        0.1369
      9 O          64.9075   92.3315   12.8472 O.3     1  UNL1       -0.4709
     10 C          66.3874   92.4061   12.6145 C.3     1  UNL1        0.2320
     11 C          66.9158   92.8525   11.2835 C.ar    1  UNL1        0.0212
     12 C          66.4285   94.1338   10.6746 C.ar    1  UNL1       -0.0007
     13 C          66.9569   94.5803    9.3436 C.ar    1  UNL1       -0.0002
     14 C          67.9727   93.7454    8.6216 C.ar    1  UNL1       -0.0000
     15 C          68.4600   92.4641    9.2306 C.ar    1  UNL1       -0.0002
     16 C          67.9316   92.0177   10.5616 C.ar    1  UNL1       -0.0007
     17 C          62.9292   89.5440   17.0062 C.3     1  UNL1        0.0518
     18 C          63.4567   88.3668   16.2408 C.ar    1  UNL1        0.0592
     19 C          63.3314   86.9268   16.6416 C.ar    1  UNL1        0.0506
     20 C          63.9994   86.0929   15.5887 C.ar    1  UNL1        0.1576
     21 N          64.5374   87.0175   14.5373 N.ar    1  UNL1       -0.1539
     22 N          64.2021   88.4229   14.9403 N.ar    1  UNL1       -0.2491
     23 N          64.1098   84.5969   15.5874 N.am    1  UNL1       -0.2336
     24 C          63.0861   83.7699   14.8676 C.2     1  UNL1        0.4063
     25 O          61.9520   84.4388   14.1490 O.2     1  UNL1       -0.2261
     26 H          64.8541   84.1579   16.0591 H       1  UNL1        0.1597
     27 O          63.1965   82.2739   14.8663 O.3     1  UNL1       -0.4417
     28 C          62.9481   81.5046   13.6029 C.3     1  UNL1        0.1378
     29 C          61.6445   81.0128   14.1587 C.3     1  UNL1        0.0437
     30 C          64.2516   81.9964   13.0471 C.3     1  UNL1        0.0437
     31 C          62.6996   80.7353   12.3394 C.3     1  UNL1        0.0437
@<TRIPOS>BOND
     1    17    18    1
     2    18    19   ar
     3    19    20   ar
     4    20    23    1
     5    23    24   am
     6    24    25    2
     7    24    27    1
     8    27    28    1
     9    28    29    1
    10    28    30    1
    11    28    31    1
    12    20    21   ar
    13    21    22   ar
    14    22     1    1
    15     1     2    1
    16     2     3   ar
    17     3     4   ar
    18     4     5    1
    19     4     6   ar
    20     6     7   ar
    21     7     8   ar
    22     8     9    1
    23     9    10    1
    24    10    11    1
    25    11    12   ar
    26    12    13   ar
    27    13    14   ar
    28    14    15   ar
    29    15    16   ar
    30    22    18   ar
    31     8     2   ar
    32    16    11   ar
    33    23    26    1
@<TRIPOS>MOLECULE
*****
 31 33 0 0 0
SMALL
GASTEIGER

@<TRIPOS>ATOM
      1 C          63.4775   89.5056   15.6418 C.3     1  UNL1        0.1565
      2 C          64.0665   90.3610   14.5594 C.ar    1  UNL1        0.0369
      3 C          65.3230   91.1384   14.8181 C.ar    1  UNL1        0.0121
      4 C          65.9120   91.9937   13.7358 C.ar    1  UNL1        0.0576
      5 CL         67.1685   92.7711   13.9944 Cl      1  UNL1       -0.0823
      6 C          65.2444   92.0718   12.3948 C.ar    1  UNL1        0.0145
      7 C          63.9879   91.2944   12.1361 C.ar    1  UNL1        0.0375
      8 C          63.3989   90.4391   13.2184 C.ar    1  UNL1        0.1369
      9 O          62.1424   89.6617   12.9598 O.3     1  UNL1       -0.4709
     10 C          61.3816   89.8689   11.6838 C.3     1  UNL1        0.2320
     11 C          61.2665   88.7517   10.6894 C.ar    1  UNL1        0.0212
     12 C          60.2465   88.8266    9.5920 C.ar    1  UNL1       -0.0007
     13 C          60.1314   87.7095    8.5977 C.ar    1  UNL1       -0.0002
     14 C          61.0362   86.5174    8.7007 C.ar    1  UNL1       -0.0000
     15 C          62.0560   86.4426    9.7981 C.ar    1  UNL1       -0.0002
     16 C          62.1712   87.5598   10.7924 C.ar    1  UNL1       -0.0007
     17 C          62.6427   87.4233   18.0117 C.3     1  UNL1        0.0518
     18 C          63.3213   87.0659   16.7227 C.ar    1  UNL1        0.0592
     19 C          63.7353   85.6886   16.2966 C.ar    1  UNL1        0.0506
     20 C          64.3750   85.7945   14.9439 C.ar    1  UNL1        0.1576
     21 N          64.3562   87.2373   14.5340 N.ar    1  UNL1       -0.1539
     22 N          63.7050   88.0231   15.6333 N.ar    1  UNL1       -0.2491
     23 N          64.9350   84.6573   14.1420 N.am    1  UNL1       -0.2336
     24 C          64.1334   84.0630   13.0221 C.2     1  UNL1        0.4063
     25 O          62.7717   84.6059   12.7041 O.2     1  UNL1       -0.2261
     26 H          65.8288   84.3010   14.3507 H       1  UNL1        0.1597
     27 O          64.6934   82.9257   12.2201 O.3     1  UNL1       -0.4417
     28 C          63.7700   81.9220   11.5959 C.3     1  UNL1        0.1378
     29 C          64.0169   82.5330   10.2483 C.3     1  UNL1        0.0437
     30 C          63.5231   81.3110   12.9434 C.3     1  UNL1        0.0437
     31 C          62.8466   80.9182   10.9716 C.3     1  UNL1        0.0437
@<TRIPOS>BOND
     1    17    18    1
     2    18    19   ar
     3    19    20   ar
     4    20    23    1
     5    23    24   am
     6    24    25    2
     7    24    27    1
     8    27    28    1
     9    28    29    1
    10    28    30    1
    11    28    31    1
    12    20    21   ar
    13    21    22   ar
    14    22     1    1
    15     1     2    1
    16     2     3   ar
    17     3     4   ar
    18     4     5    1
    19     4     6   ar
    20     6     7   ar
    21     7     8   ar
    22     8     9    1
    23     9    10    1
    24    10    11    1
    25    11    12   ar
    26    12    13   ar
    27    13    14   ar
    28    14    15   ar
    29    15    16   ar
    30    22    18   ar
    31     8     2   ar
    32    16    11   ar
    33    23    26    1
@<TRIPOS>MOLECULE
*****
 31 33 0 0 0
SMALL
GASTEIGER

@<TRIPOS>ATOM
      1 C          62.0036   90.1628   11.3431 C.3     1  UNL1        0.1565
      2 C          63.2574   90.8818   11.7445 C.ar    1  UNL1        0.0369
      3 C          64.0665   91.6111   10.7133 C.ar    1  UNL1        0.0121
      4 C          65.3202   92.3302   11.1146 C.ar    1  UNL1        0.0576
      5 CL         66.1294   93.0594   10.0833 Cl      1  UNL1       -0.0823
      6 C          65.7648   92.3199   12.5471 C.ar    1  UNL1        0.0145
      7 C          64.9557   91.5906   13.5783 C.ar    1  UNL1        0.0375
      8 C          63.7019   90.8716   13.1770 C.ar    1  UNL1        0.1369
      9 O          62.8928   90.1423   14.2082 O.3     1  UNL1       -0.4709
     10 C          63.5288   89.7195   15.4992 C.3     1  UNL1        0.2320
     11 C          63.5626   88.2687   15.8789 C.ar    1  UNL1        0.0212
     12 C          64.2994   87.2853   15.0186 C.ar    1  UNL1       -0.0007
     13 C          64.3331   85.8345   15.3982 C.ar    1  UNL1       -0.0002
     14 C          63.6301   85.3672   16.6382 C.ar    1  UNL1       -0.0000
     15 C          62.8934   86.3506   17.4984 C.ar    1  UNL1       -0.0002
     16 C          62.8596   87.8014   17.1187 C.ar    1  UNL1       -0.0007
     17 C          60.3699   88.4558    9.0921 C.3     1  UNL1        0.0518
     18 C          61.2598   87.8859   10.1567 C.ar    1  UNL1        0.0592
     19 C          61.5549   86.4313   10.3735 C.ar    1  UNL1        0.0506
     20 C          62.4882   86.3170   11.5423 C.ar    1  UNL1        0.1576
     21 N          62.7699   87.7009   12.0477 N.ar    1  UNL1       -0.1539
     22 N          62.0106   88.6705   11.1914 N.ar    1  UNL1       -0.2491
     23 N          63.0426   85.0424   12.1065 N.am    1  UNL1       -0.2336
     24 C          63.5895   83.9907   11.1874 C.2     1  UNL1        0.4063
     25 O          63.5822   84.2136    9.7040 O.2     1  UNL1       -0.2261
     26 H          63.0474   84.8962   13.0801 H       1  UNL1        0.1597
     27 O          64.1439   82.7162   11.7515 O.3     1  UNL1       -0.4417
     28 C          63.2301   81.7311   12.4181 C.3     1  UNL1        0.1378
     29 C          62.8627   81.1653   11.0783 C.3     1  UNL1        0.0437
     30 C          63.5974   82.2968   13.7579 C.3     1  UNL1        0.0437
     31 C          62.3162   80.7459   13.0847 C.3     1  UNL1        0.0437
@<TRIPOS>BOND
     1    17    18    1
     2    18    19   ar
     3    19    20   ar
     4    20    23    1
     5    23    24   am
     6    24    25    2
     7    24    27    1
     8    27    28    1
     9    28    29    1
    10    28    30    1
    11    28    31    1
    12    20    21   ar
    13    21    22   ar
    14    22     1    1
    15     1     2    1
    16     2     3   ar
    17     3     4   ar
    18     4     5    1
    19     4     6   ar
    20     6     7   ar
    21     7     8   ar
    22     8     9    1
    23     9    10    1
    24    10    11    1
    25    11    12   ar
    26    12    13   ar
    27    13    14   ar
    28    14    15   ar
    29    15    16   ar
    30    22    18   ar
    31     8     2   ar
    32    16    11   ar
    33    23    26    1
@<TRIPOS>MOLECULE
*****
 31 33 0 0 0
SMALL
GASTEIGER

@<TRIPOS>ATOM
      1 C          62.6457   90.2125   11.4492 C.3     1  UNL1        0.1565
      2 C          63.4342   90.5945   12.6668 C.ar    1  UNL1        0.0369
      3 C          63.0355   90.0689   14.0139 C.ar    1  UNL1        0.0121
      4 C          63.8239   90.4509   15.2314 C.ar    1  UNL1        0.0576
      5 CL         63.4252   89.9253   16.5786 Cl      1  UNL1       -0.0823
      6 C          65.0111   91.3585   15.1018 C.ar    1  UNL1        0.0145
      7 C          65.4098   91.8841   13.7547 C.ar    1  UNL1        0.0375
      8 C          64.6214   91.5021   12.5372 C.ar    1  UNL1        0.1369
      9 O          65.0201   92.0277   11.1901 O.3     1  UNL1       -0.4709
     10 C          66.4173   92.5233   10.9619 C.3     1  UNL1        0.2320
     11 C          66.6470   93.9282   10.4889 C.ar    1  UNL1        0.0212
     12 C          66.1777   95.0855   11.3199 C.ar    1  UNL1       -0.0007
     13 C          66.4073   96.4903   10.8469 C.ar    1  UNL1       -0.0002
     14 C          67.1062   96.7378    9.5429 C.ar    1  UNL1       -0.0000
     15 C          67.5755   95.5806    8.7120 C.ar    1  UNL1       -0.0002
     16 C          67.3459   94.1757    9.1850 C.ar    1  UNL1       -0.0007
     17 C          60.0864   89.2066    9.6921 C.3     1  UNL1        0.0518
     18 C          61.0428   88.3262   10.4405 C.ar    1  UNL1        0.0592
     19 C          60.9907   86.8289   10.5127 C.ar    1  UNL1        0.0506
     20 C          62.1350   86.3658   11.3650 C.ar    1  UNL1        0.1576
     21 N          62.8942   87.5770   11.8196 N.ar    1  UNL1       -0.1539
     22 N          62.2192   88.7886   11.2482 N.ar    1  UNL1       -0.2491
     23 N          62.4625   84.9417   11.7034 N.am    1  UNL1       -0.2336
     24 C          63.2761   84.6288   12.9241 C.2     1  UNL1        0.4063
     25 O          63.7622   85.7402   13.8065 O.2     1  UNL1       -0.2261
     26 H          62.1434   84.2122   11.1242 H       1  UNL1        0.1597
     27 O          63.6036   83.2047   13.2625 O.3     1  UNL1       -0.4417
     28 C          62.5066   82.2492   13.6278 C.3     1  UNL1        0.1378
     29 C          62.2538   83.0216   14.8887 C.3     1  UNL1        0.0437
     30 C          62.7594   81.4768   12.3671 C.3     1  UNL1        0.0437
     31 C          61.4095   81.2937   13.9932 C.3     1  UNL1        0.0437
@<TRIPOS>BOND
     1    17    18    1
     2    18    19   ar
     3    19    20   ar
     4    20    23    1
     5    23    24   am
     6    24    25    2
     7    24    27    1
     8    27    28    1
     9    28    29    1
    10    28    30    1
    11    28    31    1
    12    20    21   ar
    13    21    22   ar
    14    22     1    1
    15     1     2    1
    16     2     3   ar
    17     3     4   ar
    18     4     5    1
    19     4     6   ar
    20     6     7   ar
    21     7     8   ar
    22     8     9    1
    23     9    10    1
    24    10    11    1
    25    11    12   ar
    26    12    13   ar
    27    13    14   ar
    28    14    15   ar
    29    15    16   ar
    30    22    18   ar
    31     8     2   ar
    32    16    11   ar
    33    23    26    1
@<TRIPOS>MOLECULE
*****
 31 33 0 0 0
SMALL
GASTEIGER

@<TRIPOS>ATOM
      1 C          61.2909   89.6435   11.8594 C.3     1  UNL1        0.1565
      2 C          60.9763   88.7635   10.6860 C.ar    1  UNL1        0.0369
      3 C          60.3424   89.3482    9.4587 C.ar    1  UNL1        0.0121
      4 C          60.0278   88.4683    8.2853 C.ar    1  UNL1        0.0576
      5 CL         59.3939   89.0530    7.0580 Cl      1  UNL1       -0.0823
      6 C          60.3472   87.0037    8.3393 C.ar    1  UNL1        0.0145
      7 C          60.9811   86.4191    9.5666 C.ar    1  UNL1        0.0375
      8 C          61.2957   87.2989   10.7399 C.ar    1  UNL1        0.1369
      9 O          61.9296   86.7143   11.9673 O.3     1  UNL1       -0.4709
     10 C          62.9465   85.6193   11.8370 C.3     1  UNL1        0.2320
     11 C          62.7512   84.3237   12.5672 C.ar    1  UNL1        0.0212
     12 C          62.6758   83.0356   11.8021 C.ar    1  UNL1       -0.0007
     13 C          62.4805   81.7399   12.5322 C.ar    1  UNL1       -0.0002
     14 C          62.3605   81.7323   14.0275 C.ar    1  UNL1       -0.0000
     15 C          62.4359   83.0203   14.7925 C.ar    1  UNL1       -0.0002
     16 C          62.6312   84.3160   14.0623 C.ar    1  UNL1       -0.0007
     17 C          63.3650   89.8868   14.3670 C.3     1  UNL1        0.0518
     18 C          63.5140   90.5537   13.0317 C.ar    1  UNL1        0.0592
     19 C          64.6425   91.4495   12.6146 C.ar    1  UNL1        0.0506
     20 C          64.3866   91.8913   11.2041 C.ar    1  UNL1        0.1576
     21 N          63.0999   91.2685   10.7496 N.ar    1  UNL1       -0.1539
     22 N          62.5606   90.4418   11.8791 N.ar    1  UNL1       -0.2491
     23 N          65.2634   92.7968   10.3910 N.am    1  UNL1       -0.2336
     24 C          66.5884   93.2436   10.9338 C.2     1  UNL1        0.4063
     25 O          67.0367   92.7848   12.2898 O.2     1  UNL1       -0.2261
     26 H          64.9692   93.0979    9.5010 H       1  UNL1        0.1597
     27 O          67.4653   94.1491   10.1208 O.3     1  UNL1       -0.4417
     28 C          66.9031   95.4107    9.5358 C.3     1  UNL1        0.1378
     29 C          67.2598   94.9316    8.1597 C.3     1  UNL1        0.0437
     30 C          66.5464   95.8898   10.9117 C.3     1  UNL1        0.0437
     31 C          66.3409   96.6722    8.9507 C.3     1  UNL1        0.0437
@<TRIPOS>BOND
     1    17    18    1
     2    18    19   ar
     3    19    20   ar
     4    20    23    1
     5    23    24   am
     6    24    25    2
     7    24    27    1
     8    27    28    1
     9    28    29    1
    10    28    30    1
    11    28    31    1
    12    20    21   ar
    13    21    22   ar
    14    22     1    1
    15     1     2    1
    16     2     3   ar
    17     3     4   ar
    18     4     5    1
    19     4     6   ar
    20     6     7   ar
    21     7     8   ar
    22     8     9    1
    23     9    10    1
    24    10    11    1
    25    11    12   ar
    26    12    13   ar
    27    13    14   ar
    28    14    15   ar
    29    15    16   ar
    30    22    18   ar
    31     8     2   ar
    32    16    11   ar
    33    23    26    1
@<TRIPOS>MOLECULE
*****
 31 33 0 0 0
SMALL
GASTEIGER

@<TRIPOS>ATOM
      1 C          60.9576   87.1449   10.9780 C.3     1  UNL1        0.1565
      2 C          61.7844   86.1302   10.2452 C.ar    1  UNL1        0.0369
      3 C          61.6883   86.0215    8.7522 C.ar    1  UNL1        0.0121
      4 C          62.5150   85.0069    8.0193 C.ar    1  UNL1        0.0576
      5 CL         62.4190   84.8983    6.5263 Cl      1  UNL1       -0.0823
      6 C          63.4377   84.1010    8.7794 C.ar    1  UNL1        0.0145
      7 C          63.5337   84.2096   10.2724 C.ar    1  UNL1        0.0375
      8 C          62.7071   85.2242   11.0053 C.ar    1  UNL1        0.1369
      9 O          62.8031   85.3329   12.4982 O.3     1  UNL1       -0.4709
     10 C          63.5277   84.2789   13.2818 C.3     1  UNL1        0.2320
     11 C          62.9845   82.8820   13.3411 C.ar    1  UNL1        0.0212
     12 C          63.5403   81.8222   12.4367 C.ar    1  UNL1       -0.0007
     13 C          62.9970   80.4253   12.4959 C.ar    1  UNL1       -0.0002
     14 C          61.8979   80.0882   13.4595 C.ar    1  UNL1       -0.0000
     15 C          61.3422   81.1480   14.3639 C.ar    1  UNL1       -0.0002
     16 C          61.8854   82.5450   14.3046 C.ar    1  UNL1       -0.0007
     17 C          60.3578   89.7690    9.1331 C.3     1  UNL1        0.0518
     18 C          61.2200   89.7322   10.3599 C.ar    1  UNL1        0.0592
     19 C          61.9579   90.8951   10.9542 C.ar    1  UNL1        0.0506
     20 C          62.6897   90.4076   12.1695 C.ar    1  UNL1        0.1576
     21 N          62.4040   88.9434   12.3263 N.ar    1  UNL1       -0.1539
     22 N          61.4957   88.5260   11.2080 N.ar    1  UNL1       -0.2491
     23 N          63.5552   91.2384   13.0699 N.am    1  UNL1       -0.2336
     24 C          64.7001   92.0203   12.4973 C.2     1  UNL1        0.4063
     25 O          64.9796   91.9714   11.0243 O.2     1  UNL1       -0.2261
     26 H          63.3718   91.2706   14.0366 H       1  UNL1        0.1597
     27 O          65.5656   92.8512   13.3976 O.3     1  UNL1       -0.4417
     28 C          66.6102   92.1937   14.2498 C.3     1  UNL1        0.1378
     29 C          67.4626   91.9738   13.0353 C.3     1  UNL1        0.0437
     30 C          65.7578   92.4135   15.4644 C.3     1  UNL1        0.0437
     31 C          67.6549   91.5361   15.1020 C.3     1  UNL1        0.0437
@<TRIPOS>BOND
     1    17    18    1
     2    18    19   ar
     3    19    20   ar
     4    20    23    1
     5    23    24   am
     6    24    25    2
     7    24    27    1
     8    27    28    1
     9    28    29    1
    10    28    30    1
    11    28    31    1
    12    20    21   ar
    13    21    22   ar
    14    22     1    1
    15     1     2    1
    16     2     3   ar
    17     3     4   ar
    18     4     5    1
    19     4     6   ar
    20     6     7   ar
    21     7     8   ar
    22     8     9    1
    23     9    10    1
    24    10    11    1
    25    11    12   ar
    26    12    13   ar
    27    13    14   ar
    28    14    15   ar
    29    15    16   ar
    30    22    18   ar
    31     8     2   ar
    32    16    11   ar
    33    23    26    1
@<TRIPOS>MOLECULE
*****
 31 33 0 0 0
SMALL
GASTEIGER

@<TRIPOS>ATOM
      1 C          62.5365   84.8202   12.4198 C.3     1  UNL1        0.1565
      2 C          62.2553   85.2702   11.0167 C.ar    1  UNL1        0.0369
      3 C          61.0859   86.1670   10.7369 C.ar    1  UNL1        0.0121
      4 C          60.8048   86.6170    9.3339 C.ar    1  UNL1        0.0576
      5 CL         59.6354   87.5138    9.0540 Cl      1  UNL1       -0.0823
      6 C          61.6929   86.1702    8.2108 C.ar    1  UNL1        0.0145
      7 C          62.8623   85.2733    8.4906 C.ar    1  UNL1        0.0375
      8 C          63.1435   84.8234    9.8936 C.ar    1  UNL1        0.1369
      9 O          64.3128   83.9265   10.1735 O.3     1  UNL1       -0.4709
     10 C          64.1424   82.4369   10.1317 C.3     1  UNL1        0.2320
     11 C          63.7573   81.6909   11.3748 C.ar    1  UNL1        0.0212
     12 C          62.7050   80.6237   11.3133 C.ar    1  UNL1       -0.0007
     13 C          62.3198   79.8777   12.5564 C.ar    1  UNL1       -0.0002
     14 C          62.9871   80.1989   13.8609 C.ar    1  UNL1       -0.0000
     15 C          64.0394   81.2661   13.9223 C.ar    1  UNL1       -0.0002
     16 C          64.4245   82.0121   12.6793 C.ar    1  UNL1       -0.0007
     17 C          63.4426   84.0920   15.4691 C.3     1  UNL1        0.0518
     18 C          63.6324   85.4131   14.7846 C.ar    1  UNL1        0.0592
     19 C          64.2721   86.6315   15.3816 C.ar    1  UNL1        0.0506
     20 C          64.2508   87.7192   14.3489 C.ar    1  UNL1        0.1576
     21 N          63.5981   87.1731   13.1137 N.ar    1  UNL1       -0.1539
     22 N          63.2159   85.7478   13.3830 N.ar    1  UNL1       -0.2491
     23 N          64.7881   89.1091   14.5211 N.am    1  UNL1       -0.2336
     24 C          63.8617   90.2863   14.4432 C.2     1  UNL1        0.4063
     25 O          62.3980   90.0736   14.1930 O.2     1  UNL1       -0.2261
     26 H          65.7487   89.2487   14.6853 H       1  UNL1        0.1597
     27 O          64.3988   91.6762   14.6154 O.3     1  UNL1       -0.4417
     28 C          65.6522   92.0896   13.9026 C.3     1  UNL1        0.1378
     29 C          66.3675   92.1879   15.2175 C.3     1  UNL1        0.0437
     30 C          64.9369   91.9914   12.5878 C.3     1  UNL1        0.0437
     31 C          66.9056   92.5030   13.1899 C.3     1  UNL1        0.0437
@<TRIPOS>BOND
     1    17    18    1
     2    18    19   ar
     3    19    20   ar
     4    20    23    1
     5    23    24   am
     6    24    25    2
     7    24    27    1
     8    27    28    1
     9    28    29    1
    10    28    30    1
    11    28    31    1
    12    20    21   ar
    13    21    22   ar
    14    22     1    1
    15     1     2    1
    16     2     3   ar
    17     3     4   ar
    18     4     5    1
    19     4     6   ar
    20     6     7   ar
    21     7     8   ar
    22     8     9    1
    23     9    10    1
    24    10    11    1
    25    11    12   ar
    26    12    13   ar
    27    13    14   ar
    28    14    15   ar
    29    15    16   ar
    30    22    18   ar
    31     8     2   ar
    32    16    11   ar
    33    23    26    1
@<TRIPOS>MOLECULE
*****
 31 33 0 0 0
SMALL
GASTEIGER

@<TRIPOS>ATOM
      1 C          62.1598   86.6200   11.3512 C.3     1  UNL1        0.1565
      2 C          61.8768   86.1658    9.9499 C.ar    1  UNL1        0.0369
      3 C          60.6935   86.7137    9.2084 C.ar    1  UNL1        0.0121
      4 C          60.4104   86.2595    7.8072 C.ar    1  UNL1        0.0576
      5 CL         59.2272   86.8074    7.0658 Cl      1  UNL1       -0.0823
      6 C          61.3106   85.2573    7.1474 C.ar    1  UNL1        0.0145
      7 C          62.4939   84.7094    7.8888 C.ar    1  UNL1        0.0375
      8 C          62.7769   85.1637    9.2901 C.ar    1  UNL1        0.1369
      9 O          63.9602   84.6158   10.0315 O.3     1  UNL1       -0.4709
     10 C          64.0162   83.1585   10.3826 C.3     1  UNL1        0.2320
     11 C          63.3889   82.6688   11.6541 C.ar    1  UNL1        0.0212
     12 C          62.9313   81.2445   11.7645 C.ar    1  UNL1       -0.0007
     13 C          62.3040   80.7547   13.0360 C.ar    1  UNL1       -0.0002
     14 C          62.1345   81.6892   14.1971 C.ar    1  UNL1       -0.0000
     15 C          62.5921   83.1134   14.0866 C.ar    1  UNL1       -0.0002
     16 C          63.2194   83.6032   12.8151 C.ar    1  UNL1       -0.0007
     17 C          59.6326   88.6796   11.4960 C.3     1  UNL1        0.0518
     18 C          61.0716   89.0318   11.7308 C.ar    1  UNL1        0.0592
     19 C          61.6017   90.3926   12.0734 C.ar    1  UNL1        0.0506
     20 C          63.0909   90.2869   12.2186 C.ar    1  UNL1        0.1576
     21 N          63.4812   88.8608   11.9657 N.ar    1  UNL1       -0.1539
     22 N          62.2333   88.0851   11.6642 N.ar    1  UNL1       -0.2491
     23 N          64.0257   91.4100   12.5572 N.am    1  UNL1       -0.2336
     24 C          64.6916   91.4525   13.9006 C.2     1  UNL1        0.4063
     25 O          64.4228   90.3716   14.9055 O.2     1  UNL1       -0.2261
     26 H          64.2022   92.1194   11.8977 H       1  UNL1        0.1597
     27 O          65.6264   92.5756   14.2393 O.3     1  UNL1       -0.4417
     28 C          66.9489   92.2823   14.8835 C.3     1  UNL1        0.1378
     29 C          67.4976   91.8449   13.5577 C.3     1  UNL1        0.0437
     30 C          66.4002   92.7197   16.2092 C.3     1  UNL1        0.0437
     31 C          68.2714   91.9890   15.5276 C.3     1  UNL1        0.0437
@<TRIPOS>BOND
     1    17    18    1
     2    18    19   ar
     3    19    20   ar
     4    20    23    1
     5    23    24   am
     6    24    25    2
     7    24    27    1
     8    27    28    1
     9    28    29    1
    10    28    30    1
    11    28    31    1
    12    20    21   ar
    13    21    22   ar
    14    22     1    1
    15     1     2    1
    16     2     3   ar
    17     3     4   ar
    18     4     5    1
    19     4     6   ar
    20     6     7   ar
    21     7     8   ar
    22     8     9    1
    23     9    10    1
    24    10    11    1
    25    11    12   ar
    26    12    13   ar
    27    13    14   ar
    28    14    15   ar
    29    15    16   ar
    30    22    18   ar
    31     8     2   ar
    32    16    11   ar
    33    23    26    1
@<TRIPOS>MOLECULE
*****
 31 33 0 0 0
SMALL
GASTEIGER

@<TRIPOS>ATOM
      1 C          64.6563   85.3526   15.1334 C.3     1  UNL1        0.1565
      2 C          63.9134   84.3845   14.2610 C.ar    1  UNL1        0.0369
      3 C          63.8802   82.9276   14.6164 C.ar    1  UNL1        0.0121
      4 C          63.1374   81.9596   13.7441 C.ar    1  UNL1        0.0576
      5 CL         63.1041   80.5027   14.0996 Cl      1  UNL1       -0.0823
      6 C          62.4278   82.4484   12.5163 C.ar    1  UNL1        0.0145
      7 C          62.4611   83.9053   12.1608 C.ar    1  UNL1        0.0375
      8 C          63.2039   84.8733   13.0331 C.ar    1  UNL1        0.1369
      9 O          63.2372   86.3302   12.6777 O.3     1  UNL1       -0.4709
     10 C          62.7466   86.7861   11.3355 C.3     1  UNL1        0.2320
     11 C          61.9021   88.0210   11.2254 C.ar    1  UNL1        0.0212
     12 C          60.4064   87.9079   11.2108 C.ar    1  UNL1       -0.0007
     13 C          59.5620   89.1427   11.1007 C.ar    1  UNL1       -0.0002
     14 C          60.2132   90.4906   11.0053 C.ar    1  UNL1       -0.0000
     15 C          61.7089   90.6037   11.0199 C.ar    1  UNL1       -0.0002
     16 C          62.5533   89.3688   11.1300 C.ar    1  UNL1       -0.0007
     17 C          62.8193   86.3783   17.6280 C.3     1  UNL1        0.0518
     18 C          63.2857   87.2153   16.4739 C.ar    1  UNL1        0.0592
     19 C          62.9895   88.6706   16.2639 C.ar    1  UNL1        0.0506
     20 C          63.6509   89.0987   14.9874 C.ar    1  UNL1        0.1576
     21 N          64.3558   87.9078   14.4085 N.ar    1  UNL1       -0.1539
     22 N          64.1300   86.7438   15.3273 N.ar    1  UNL1       -0.2491
     23 N          63.6139   90.4758   14.3939 N.am    1  UNL1       -0.2336
     24 C          64.8924   91.2190   14.1429 C.2     1  UNL1        0.4063
     25 O          66.2081   90.5850   14.4854 O.2     1  UNL1       -0.2261
     26 H          62.7504   90.8919   14.1691 H       1  UNL1        0.1597
     27 O          64.8555   92.5961   13.5495 O.3     1  UNL1       -0.4417
     28 C          65.7861   92.9552   12.4292 C.3     1  UNL1        0.1378
     29 C          64.9930   92.0915   11.4936 C.3     1  UNL1        0.0437
     30 C          66.5791   93.8189   13.3647 C.3     1  UNL1        0.0437
     31 C          66.7166   93.3143   11.3089 C.3     1  UNL1        0.0437
@<TRIPOS>BOND
     1    17    18    1
     2    18    19   ar
     3    19    20   ar
     4    20    23    1
     5    23    24   am
     6    24    25    2
     7    24    27    1
     8    27    28    1
     9    28    29    1
    10    28    30    1
    11    28    31    1
    12    20    21   ar
    13    21    22   ar
    14    22     1    1
    15     1     2    1
    16     2     3   ar
    17     3     4   ar
    18     4     5    1
    19     4     6   ar
    20     6     7   ar
    21     7     8   ar
    22     8     9    1
    23     9    10    1
    24    10    11    1
    25    11    12   ar
    26    12    13   ar
    27    13    14   ar
    28    14    15   ar
    29    15    16   ar
    30    22    18   ar
    31     8     2   ar
    32    16    11   ar
    33    23    26    1
