@<TRIPOS>MOLECULE
*****
 16 17 0 0 0
SMALL
GASTEIGER

@<TRIPOS>ATOM
      1 O          62.6632   89.8495   15.0022 O.2     1  UNL1       -0.2865
      2 C          63.7236   90.6908   14.3559 C.2     1  UNL1        0.1989
      3 C          64.8620   91.2226   15.1752 C.2     1  UNL1        0.0454
      4 C          65.9224   92.0639   14.5288 C.2     1  UNL1        0.0454
      5 C          65.8444   92.3735   13.0632 C.2     1  UNL1        0.1989
      6 O          66.9048   93.2148   12.4169 O.2     1  UNL1       -0.2865
      7 C          64.7061   91.8417   12.2439 C.ar    1  UNL1        0.0786
      8 C          64.6280   92.1512   10.7783 C.ar    1  UNL1        0.1370
      9 O          65.6884   92.9926   10.1319 O.3     1  UNL1       -0.5054
     10 C          63.4896   91.6195    9.9590 C.ar    1  UNL1        0.0398
     11 C          62.4292   90.7782   10.6053 C.ar    1  UNL1        0.0398
     12 C          62.5072   90.4686   12.0709 C.ar    1  UNL1        0.1370
     13 O          61.4468   89.6273   12.7173 O.3     1  UNL1       -0.5054
     14 C          63.6456   91.0004   12.8903 C.ar    1  UNL1        0.0786
     15 H          66.3995   93.3247   10.6437 H       1  UNL1        0.2922
     16 H          60.7357   89.2952   12.2055 H       1  UNL1        0.2922
@<TRIPOS>BOND
     1     1     2    2
     2     2     3    1
     3     3     4    2
     4     4     5    1
     5     5     6    2
     6     5     7    1
     7     7     8   ar
     8     8     9    1
     9     8    10   ar
    10    10    11   ar
    11    11    12   ar
    12    12    13    1
    13    12    14   ar
    14    14     2    1
    15    14     7   ar
    16     9    15    1
    17    13    16    1
@<TRIPOS>MOLECULE
*****
 16 17 0 0 0
SMALL
GASTEIGER

@<TRIPOS>ATOM
      1 O          67.0736   93.0307   12.6290 O.2     1  UNL1       -0.2865
      2 C          65.9563   92.2371   13.2388 C.2     1  UNL1        0.1989
      3 C          65.9785   91.9135   14.7033 C.2     1  UNL1        0.0454
      4 C          64.8611   91.1199   15.3130 C.2     1  UNL1        0.0454
      5 C          63.7217   90.6499   14.4583 C.2     1  UNL1        0.1989
      6 O          62.6044   89.8563   15.0680 O.2     1  UNL1       -0.2865
      7 C          63.6995   90.9734   12.9938 C.ar    1  UNL1        0.0786
      8 C          62.5600   90.5034   12.1389 C.ar    1  UNL1        0.1370
      9 O          61.4427   89.7098   12.7487 O.3     1  UNL1       -0.5054
     10 C          62.5379   90.8269   10.6744 C.ar    1  UNL1        0.0398
     11 C          63.6552   91.6205   10.0647 C.ar    1  UNL1        0.0398
     12 C          64.7947   92.0906   10.9194 C.ar    1  UNL1        0.1370
     13 O          65.9120   92.8842   10.3097 O.3     1  UNL1       -0.5054
     14 C          64.8169   91.7670   12.3840 C.ar    1  UNL1        0.0786
     15 H          61.4566   89.5077   13.6635 H       1  UNL1        0.2922
     16 H          65.8982   93.0863    9.3949 H       1  UNL1        0.2922
@<TRIPOS>BOND
     1     1     2    2
     2     2     3    1
     3     3     4    2
     4     4     5    1
     5     5     6    2
     6     5     7    1
     7     7     8   ar
     8     8     9    1
     9     8    10   ar
    10    10    11   ar
    11    11    12   ar
    12    12    13    1
    13    12    14   ar
    14    14     2    1
    15    14     7   ar
    16     9    15    1
    17    13    16    1
@<TRIPOS>MOLECULE
*****
 16 17 0 0 0
SMALL
GASTEIGER

@<TRIPOS>ATOM
      1 O          65.8420   93.0159   10.3136 O.2     1  UNL1       -0.2865
      2 C          64.7693   92.1498   10.9046 C.2     1  UNL1        0.1989
      3 C          63.6823   91.6000   10.0293 C.2     1  UNL1        0.0454
      4 C          62.6096   90.7339   10.6203 C.2     1  UNL1        0.0454
      5 C          62.6238   90.4177   12.0865 C.2     1  UNL1        0.1989
      6 O          61.5511   89.5517   12.6774 O.2     1  UNL1       -0.2865
      7 C          63.7108   90.9676   12.9617 C.ar    1  UNL1        0.0786
      8 C          63.7251   90.6514   14.4280 C.ar    1  UNL1        0.1370
      9 O          62.6524   89.7853   15.0189 O.3     1  UNL1       -0.5054
     10 C          64.8121   91.2012   15.3032 C.ar    1  UNL1        0.0398
     11 C          65.8848   92.0673   14.7123 C.ar    1  UNL1        0.0398
     12 C          65.8706   92.3835   13.2461 C.ar    1  UNL1        0.1370
     13 O          66.9433   93.2495   12.6551 O.3     1  UNL1       -0.5054
     14 C          64.7835   91.8336   12.3708 C.ar    1  UNL1        0.0786
     15 H          61.9734   89.4419   14.4722 H       1  UNL1        0.2922
     16 H          67.6223   93.5930   13.2019 H       1  UNL1        0.2922
@<TRIPOS>BOND
     1     1     2    2
     2     2     3    1
     3     3     4    2
     4     4     5    1
     5     5     6    2
     6     5     7    1
     7     7     8   ar
     8     8     9    1
     9     8    10   ar
    10    10    11   ar
    11    11    12   ar
    12    12    13    1
    13    12    14   ar
    14    14     2    1
    15    14     7   ar
    16     9    15    1
    17    13    16    1
@<TRIPOS>MOLECULE
*****
 16 17 0 0 0
SMALL
GASTEIGER

@<TRIPOS>ATOM
      1 O          62.4345   89.5066   13.5035 O.2     1  UNL1       -0.2865
      2 C          63.2439   90.4378   12.6503 C.2     1  UNL1        0.1989
      3 C          62.9458   90.5631   11.1856 C.2     1  UNL1        0.0454
      4 C          63.7552   91.4943   10.3325 C.2     1  UNL1        0.0454
      5 C          64.8627   92.3000   10.9440 C.2     1  UNL1        0.1989
      6 O          65.6721   93.2312   10.0909 O.2     1  UNL1       -0.2865
      7 C          65.1609   92.1747   12.4087 C.ar    1  UNL1        0.0786
      8 C          66.2685   92.9805   13.0203 C.ar    1  UNL1        0.1370
      9 O          67.0779   93.9116   12.1672 O.3     1  UNL1       -0.5054
     10 C          66.5666   92.8551   14.4850 C.ar    1  UNL1        0.0398
     11 C          65.7572   91.9240   15.3381 C.ar    1  UNL1        0.0398
     12 C          64.6497   91.1182   14.7266 C.ar    1  UNL1        0.1370
     13 O          63.8403   90.1871   15.5798 O.3     1  UNL1       -0.5054
     14 C          64.3515   91.2435   13.2618 C.ar    1  UNL1        0.0786
     15 H          66.8916   93.9899   11.2522 H       1  UNL1        0.2922
     16 H          64.0265   90.1088   16.4947 H       1  UNL1        0.2922
@<TRIPOS>BOND
     1     1     2    2
     2     2     3    1
     3     3     4    2
     4     4     5    1
     5     5     6    2
     6     5     7    1
     7     7     8   ar
     8     8     9    1
     9     8    10   ar
    10    10    11   ar
    11    11    12   ar
    12    12    13    1
    13    12    14   ar
    14    14     2    1
    15    14     7   ar
    16     9    15    1
    17    13    16    1
@<TRIPOS>MOLECULE
*****
 16 17 0 0 0
SMALL
GASTEIGER

@<TRIPOS>ATOM
      1 O          62.4007   89.9487   11.3292 O.2     1  UNL1       -0.2865
      2 C          63.4471   90.3458   12.3280 C.2     1  UNL1        0.1989
      3 C          63.5494   89.6191   13.6361 C.2     1  UNL1        0.0454
      4 C          64.5957   90.0162   14.6349 C.2     1  UNL1        0.0454
      5 C          65.5397   91.1400   14.3255 C.2     1  UNL1        0.1989
      6 O          66.5860   91.5372   15.3242 O.2     1  UNL1       -0.2865
      7 C          65.4374   91.8668   13.0173 C.ar    1  UNL1        0.0786
      8 C          66.3814   92.9907   12.7079 C.ar    1  UNL1        0.1370
      9 O          67.4277   93.3878   13.7066 O.3     1  UNL1       -0.5054
     10 C          66.2791   93.7175   11.3997 C.ar    1  UNL1        0.0398
     11 C          65.2327   93.3204   10.4009 C.ar    1  UNL1        0.0398
     12 C          64.2887   92.1965   10.7103 C.ar    1  UNL1        0.1370
     13 O          63.2424   91.7994    9.7116 O.3     1  UNL1       -0.5054
     14 C          64.3910   91.4697   12.0186 C.ar    1  UNL1        0.0786
     15 H          67.4916   92.9338   14.5238 H       1  UNL1        0.2922
     16 H          63.1785   92.2534    8.8944 H       1  UNL1        0.2922
@<TRIPOS>BOND
     1     1     2    2
     2     2     3    1
     3     3     4    2
     4     4     5    1
     5     5     6    2
     6     5     7    1
     7     7     8   ar
     8     8     9    1
     9     8    10   ar
    10    10    11   ar
    11    11    12   ar
    12    12    13    1
    13    12    14   ar
    14    14     2    1
    15    14     7   ar
    16     9    15    1
    17    13    16    1
@<TRIPOS>MOLECULE
*****
 16 17 0 0 0
SMALL
GASTEIGER

@<TRIPOS>ATOM
      1 O          60.2796   87.2830    8.2097 O.2     1  UNL1       -0.2865
      2 C          61.0846   86.9983    9.4429 C.2     1  UNL1        0.1989
      3 C          61.3063   85.5817    9.8833 C.2     1  UNL1        0.0454
      4 C          62.1114   85.2969   11.1166 C.2     1  UNL1        0.0454
      5 C          62.6947   86.4287   11.9093 C.2     1  UNL1        0.1989
      6 O          63.4998   86.1440   13.1426 O.2     1  UNL1       -0.2865
      7 C          62.4731   87.8454   11.4689 C.ar    1  UNL1        0.0786
      8 C          63.0564   88.9773   12.2617 C.ar    1  UNL1        0.1370
      9 O          63.8615   88.6926   13.4949 O.3     1  UNL1       -0.5054
     10 C          62.8348   90.3939   11.8213 C.ar    1  UNL1        0.0398
     11 C          62.0297   90.6787   10.5880 C.ar    1  UNL1        0.0398
     12 C          61.4464   89.5468    9.7953 C.ar    1  UNL1        0.1370
     13 O          60.6413   89.8316    8.5620 O.3     1  UNL1       -0.5054
     14 C          61.6680   88.1301   10.2357 C.ar    1  UNL1        0.0786
     15 H          64.0000   87.8076   13.7700 H       1  UNL1        0.2922
     16 H          60.5028   90.7165    8.2869 H       1  UNL1        0.2922
@<TRIPOS>BOND
     1     1     2    2
     2     2     3    1
     3     3     4    2
     4     4     5    1
     5     5     6    2
     6     5     7    1
     7     7     8   ar
     8     8     9    1
     9     8    10   ar
    10    10    11   ar
    11    11    12   ar
    12    12    13    1
    13    12    14   ar
    14    14     2    1
    15    14     7   ar
    16     9    15    1
    17    13    16    1
@<TRIPOS>MOLECULE
*****
 16 17 0 0 0
SMALL
GASTEIGER

@<TRIPOS>ATOM
      1 O          67.6850   93.1881   13.6520 O.2     1  UNL1       -0.2865
      2 C          66.5579   92.7597   12.7598 C.2     1  UNL1        0.1989
      3 C          66.5351   93.1877   11.3223 C.2     1  UNL1        0.0454
      4 C          65.4080   92.7593   10.4301 C.2     1  UNL1        0.0454
      5 C          64.3037   91.9030   10.9752 C.2     1  UNL1        0.1989
      6 O          63.1766   91.4747   10.0830 O.2     1  UNL1       -0.2865
      7 C          64.3265   91.4751   12.4127 C.ar    1  UNL1        0.0786
      8 C          63.2222   90.6188   12.9579 C.ar    1  UNL1        0.1370
      9 O          62.0950   90.1904   12.0656 O.3     1  UNL1       -0.5054
     10 C          63.2450   90.1908   14.3954 C.ar    1  UNL1        0.0398
     11 C          64.3721   90.6191   15.2876 C.ar    1  UNL1        0.0398
     12 C          65.4764   91.4754   14.7425 C.ar    1  UNL1        0.1370
     13 O          66.6035   91.9038   15.6347 O.3     1  UNL1       -0.5054
     14 C          65.4536   91.9034   13.3049 C.ar    1  UNL1        0.0786
     15 H          62.0808   90.4577   11.1677 H       1  UNL1        0.2922
     16 H          66.6177   91.6364   16.5327 H       1  UNL1        0.2922
@<TRIPOS>BOND
     1     1     2    2
     2     2     3    1
     3     3     4    2
     4     4     5    1
     5     5     6    2
     6     5     7    1
     7     7     8   ar
     8     8     9    1
     9     8    10   ar
    10    10    11   ar
    11    11    12   ar
    12    12    13    1
    13    12    14   ar
    14    14     2    1
    15    14     7   ar
    16     9    15    1
    17    13    16    1
@<TRIPOS>MOLECULE
*****
 16 17 0 0 0
SMALL
GASTEIGER

@<TRIPOS>ATOM
      1 O          63.7168   87.0769   14.2889 O.2     1  UNL1       -0.2865
      2 C          63.9012   88.4556   13.7275 C.2     1  UNL1        0.1989
      3 C          64.6578   89.4885   14.5088 C.2     1  UNL1        0.0454
      4 C          64.8422   90.8672   13.9474 C.2     1  UNL1        0.0454
      5 C          64.2700   91.2130   12.6047 C.2     1  UNL1        0.1989
      6 O          64.4544   92.5917   12.0434 O.2     1  UNL1       -0.2865
      7 C          63.5134   90.1801   11.8234 C.ar    1  UNL1        0.0786
      8 C          62.9411   90.5258   10.4806 C.ar    1  UNL1        0.1370
      9 O          63.1255   91.9045    9.9192 O.3     1  UNL1       -0.5054
     10 C          62.1845   89.4929    9.6993 C.ar    1  UNL1        0.0398
     11 C          62.0001   88.1142   10.2607 C.ar    1  UNL1        0.0398
     12 C          62.5723   87.7684   11.6034 C.ar    1  UNL1        0.1370
     13 O          62.3879   86.3897   12.1648 O.3     1  UNL1       -0.5054
     14 C          63.3290   88.8014   12.3848 C.ar    1  UNL1        0.0786
     15 H          63.5981   92.5498   10.4073 H       1  UNL1        0.2922
     16 H          61.9152   85.7445   11.6767 H       1  UNL1        0.2922
@<TRIPOS>BOND
     1     1     2    2
     2     2     3    1
     3     3     4    2
     4     4     5    1
     5     5     6    2
     6     5     7    1
     7     7     8   ar
     8     8     9    1
     9     8    10   ar
    10    10    11   ar
    11    11    12   ar
    12    12    13    1
    13    12    14   ar
    14    14     2    1
    15    14     7   ar
    16     9    15    1
    17    13    16    1
@<TRIPOS>MOLECULE
*****
 16 17 0 0 0
SMALL
GASTEIGER

@<TRIPOS>ATOM
      1 O          63.4956   85.6031   13.3750 O.2     1  UNL1       -0.2865
      2 C          62.7894   86.1885   12.1882 C.2     1  UNL1        0.1989
      3 C          62.0733   85.2906   11.2235 C.2     1  UNL1        0.0454
      4 C          61.3671   85.8760   10.0366 C.2     1  UNL1        0.0454
      5 C          61.3772   87.3594    9.8144 C.2     1  UNL1        0.1989
      6 O          60.6711   87.9448    8.6276 O.2     1  UNL1       -0.2865
      7 C          62.0934   88.2573   10.7791 C.ar    1  UNL1        0.0786
      8 C          62.1035   89.7408   10.5570 C.ar    1  UNL1        0.1370
      9 O          61.3973   90.3262    9.3701 O.3     1  UNL1       -0.5054
     10 C          62.8197   90.6388   11.5217 C.ar    1  UNL1        0.0398
     11 C          63.5258   90.0533   12.7085 C.ar    1  UNL1        0.0398
     12 C          63.5157   88.5700   12.9307 C.ar    1  UNL1        0.1370
     13 O          64.2219   87.9845   14.1176 O.3     1  UNL1       -0.5054
     14 C          62.7995   87.6719   11.9660 C.ar    1  UNL1        0.0786
     15 H          60.9499   89.7653    8.7675 H       1  UNL1        0.2922
     16 H          64.6692   88.5455   14.7202 H       1  UNL1        0.2922
@<TRIPOS>BOND
     1     1     2    2
     2     2     3    1
     3     3     4    2
     4     4     5    1
     5     5     6    2
     6     5     7    1
     7     7     8   ar
     8     8     9    1
     9     8    10   ar
    10    10    11   ar
    11    11    12   ar
    12    12    13    1
    13    12    14   ar
    14    14     2    1
    15    14     7   ar
    16     9    15    1
    17    13    16    1
