@<TRIPOS>MOLECULE
*****
 30 34 0 0 0
SMALL
GASTEIGER

@<TRIPOS>ATOM
      1 C          63.0242   87.5963   12.6486 C.ar    1  UNL1        0.0867
      2 C          63.6955   87.6184   13.9898 C.ar    1  UNL1        0.1361
      3 N          64.0863   86.3316   14.6542 N.ar    1  UNL1       -0.2305
      4 C          63.8058   85.0226   13.9774 C.ar    1  UNL1        0.0827
      5 C          64.1967   83.7359   14.6418 C.ar    1  UNL1        0.0200
      6 C          63.9162   82.4270   13.9649 C.ar    1  UNL1        0.0129
      7 C          63.2448   82.4049   12.6237 C.ar    1  UNL1        0.0578
      8 CL         62.9643   81.0959   11.9469 Cl      1  UNL1       -0.0822
      9 C          62.8540   83.6917   11.9593 C.ar    1  UNL1        0.0129
     10 C          63.1345   85.0005   12.6362 C.ar    1  UNL1        0.0188
     11 C          62.7437   86.2874   11.9718 C.ar    1  UNL1        0.0087
     12 O          63.1303   91.9139    9.6108 O.2     1  UNL1       -0.2213
     13 C          62.6822   90.8677   10.5879 C.ar    1  UNL1        0.4358
     14 N          61.3819   90.8590   11.3359 N.ar    1  UNL1       -0.2081
     15 N          61.3518   89.6324   12.1988 N.ar    1  UNL1       -0.1295
     16 C          62.6334   88.8831   11.9843 C.ar    1  UNL1        0.2536
     17 O          63.4556   89.6465   10.9887 O.2     1  UNL1       -0.3878
     18 H          60.6728   91.5389   11.2717 H       1  UNL1        0.1954
     19 N          63.9760   88.9273   14.6667 N.pl3   1  UNL1       -0.2931
     20 C          64.9860   89.8713   14.0847 C.3     1  UNL1        0.0922
     21 C          65.2664   91.1802   14.7615 C.3     1  UNL1        0.0215
     22 C          64.5369   91.5451   16.0204 C.3     1  UNL1        0.0035
     23 C          63.5269   90.6011   16.6024 C.3     1  UNL1        0.0215
     24 C          63.2465   89.2922   15.9255 C.3     1  UNL1        0.0922
     25 C          62.0724   86.2653   10.6306 C.ar    1  UNL1        0.0003
     26 C          62.7906   85.6990    9.4416 C.ar    1  UNL1        0.0000
     27 C          62.1193   85.6769    8.1004 C.ar    1  UNL1        0.0000
     28 C          60.7297   86.2211    7.9482 C.ar    1  UNL1        0.0000
     29 C          60.0116   86.7874    9.1371 C.ar    1  UNL1        0.0000
     30 C          60.6829   86.8095   10.4783 C.ar    1  UNL1        0.0000
@<TRIPOS>BOND
     1    12    13    2
     2    13    14   ar
     3    14    15   ar
     4    15    16   ar
     5    16     1    1
     6     1     2   ar
     7     2    19    1
     8    19    20    1
     9    20    21    1
    10    21    22    1
    11    22    23    1
    12    23    24    1
    13     2     3   ar
    14     3     4   ar
    15     4     5   ar
    16     5     6   ar
    17     6     7   ar
    18     7     8    1
    19     7     9   ar
    20     9    10   ar
    21    10    11   ar
    22    11    25    1
    23    25    26   ar
    24    26    27   ar
    25    27    28   ar
    26    28    29   ar
    27    29    30   ar
    28    16    17   ar
    29    17    13   ar
    30    11     1   ar
    31    30    25   ar
    32    24    19    1
    33    10     4   ar
    34    14    18    1
