@<TRIPOS>MOLECULE
*****
 29 32 0 0 0
SMALL
GASTEIGER

@<TRIPOS>ATOM
      1 C          64.6369   89.4674   14.8579 C.3     1  UNL1        0.1351
      2 N          64.5957   90.4244   13.7036 N.ar    1  UNL1       -0.2760
      3 C          65.3749   91.7047   13.7627 C.ar    1  UNL1        0.2966
      4 O          66.1954   92.0281   14.9761 O.2     1  UNL1       -0.2636
      5 C          65.3337   92.6617   12.6084 C.ar    1  UNL1        0.2013
      6 C          64.5133   92.3384   11.3950 C.ar    1  UNL1        0.0470
      7 C          63.7340   91.0580   11.3359 C.ar    1  UNL1        0.0567
      8 C          62.9136   90.7347   10.1225 C.ar    1  UNL1        0.1049
      9 N          62.1344   89.4543   10.0634 N.ar    1  UNL1       -0.2122
     10 C          62.1756   88.4973   11.2178 C.ar    1  UNL1        0.2182
     11 N          62.9960   88.8207   12.4311 N.ar    1  UNL1       -0.1963
     12 C          63.7752   90.1010   12.4902 C.ar    1  UNL1        0.1506
     13 N          61.3963   87.2169   11.1587 N.pl3   1  UNL1       -0.3044
     14 H          60.4207   87.2280   11.2900 H       1  UNL1        0.1496
     15 C          62.1035   85.9198   10.8995 C.3     1  UNL1        0.0768
     16 C          62.5643   85.5808    9.5129 C.3     1  UNL1        0.0517
     17 C          63.2716   84.2835    9.2538 C.3     1  UNL1        0.1439
     18 O          63.5181   83.3255   10.3813 O.3     1  UNL1       -0.3537
     19 C          63.0573   83.6645   11.7679 C.3     1  UNL1        0.1439
     20 C          62.3500   84.9616   12.0270 C.3     1  UNL1        0.0517
     21 O          66.1130   93.9421   12.6675 O.3     1  UNL1       -0.4464
     22 C          66.4612   94.6673   11.4015 C.ar    1  UNL1        0.1729
     23 C          66.0060   96.0820   11.1980 C.ar    1  UNL1        0.0421
     24 C          66.3542   96.8072    9.9320 C.ar    1  UNL1        0.0329
     25 C          67.1577   96.1176    8.8694 C.ar    1  UNL1        0.1426
     26 F          67.5059   96.8428    7.6034 F       1  UNL1       -0.2041
     27 C          67.6129   94.7029    9.0728 C.ar    1  UNL1        0.0624
     28 C          67.2646   93.9777   10.3389 C.ar    1  UNL1        0.1766
     29 F          67.7198   92.5630   10.5424 F       1  UNL1       -0.2009
@<TRIPOS>BOND
     1     1     2    1
     2     2     3   ar
     3     3     4    2
     4     3     5   ar
     5     5    21    1
     6    21    22    1
     7    22    23   ar
     8    23    24   ar
     9    24    25   ar
    10    25    26    1
    11    25    27   ar
    12    27    28   ar
    13    28    29    1
    14     5     6   ar
    15     6     7   ar
    16     7     8   ar
    17     8     9   ar
    18     9    10   ar
    19    10    13    1
    20    13    15    1
    21    15    16    1
    22    16    17    1
    23    17    18    1
    24    18    19    1
    25    19    20    1
    26    10    11   ar
    27    11    12   ar
    28    12     2   ar
    29    28    22   ar
    30    12     7   ar
    31    20    15    1
    32    13    14    1
@<TRIPOS>MOLECULE
*****
 29 32 0 0 0
SMALL
GASTEIGER

@<TRIPOS>ATOM
      1 C          61.3995   90.1953   10.9700 C.3     1  UNL1        0.1351
      2 N          61.5240   88.7254   10.6984 N.ar    1  UNL1       -0.2760
      3 C          62.3940   87.8721   11.5731 C.ar    1  UNL1        0.2966
      4 O          63.1395   88.4889   12.7194 O.2     1  UNL1       -0.2636
      5 C          62.5185   86.4022   11.3016 C.ar    1  UNL1        0.2013
      6 C          61.7730   85.7855   10.1554 C.ar    1  UNL1        0.0470
      7 C          60.9029   86.6387    9.2806 C.ar    1  UNL1        0.0567
      8 C          60.1574   86.0220    8.1344 C.ar    1  UNL1        0.1049
      9 N          59.2874   86.8752    7.2597 N.ar    1  UNL1       -0.2122
     10 C          59.1630   88.3451    7.5313 C.ar    1  UNL1        0.2182
     11 N          59.9085   88.9619    8.6775 N.ar    1  UNL1       -0.1963
     12 C          60.7784   88.1086    9.5521 C.ar    1  UNL1        0.1506
     13 N          58.2929   89.1984    6.6565 N.pl3   1  UNL1       -0.3044
     14 H          57.3169   89.0691    6.6570 H       1  UNL1        0.1496
     15 C          58.9099   90.2485    5.7811 C.3     1  UNL1        0.0768
     16 C          60.3867   90.2336    5.5189 C.3     1  UNL1        0.0517
     17 C          61.0037   91.2838    4.6434 C.3     1  UNL1        0.1439
     18 O          60.1438   92.3490    4.0302 O.3     1  UNL1       -0.3537
     19 C          58.6670   92.3639    4.2924 C.3     1  UNL1        0.1439
     20 C          58.0500   91.3138    5.1678 C.3     1  UNL1        0.0517
     21 O          63.3885   85.5489   12.1763 O.3     1  UNL1       -0.4464
     22 C          63.1444   84.0716   12.2642 C.ar    1  UNL1        0.1729
     23 C          62.4548   83.4955   13.4653 C.ar    1  UNL1        0.0421
     24 C          62.2107   82.0182   13.5533 C.ar    1  UNL1        0.0329
     25 C          62.6561   81.1168   12.4400 C.ar    1  UNL1        0.1426
     26 F          62.4120   79.6394   12.5279 F       1  UNL1       -0.2041
     27 C          63.3456   81.6929   11.2389 C.ar    1  UNL1        0.0624
     28 C          63.5898   83.1703   11.1510 C.ar    1  UNL1        0.1766
     29 F          64.2793   83.7464    9.9499 F       1  UNL1       -0.2009
@<TRIPOS>BOND
     1     1     2    1
     2     2     3   ar
     3     3     4    2
     4     3     5   ar
     5     5    21    1
     6    21    22    1
     7    22    23   ar
     8    23    24   ar
     9    24    25   ar
    10    25    26    1
    11    25    27   ar
    12    27    28   ar
    13    28    29    1
    14     5     6   ar
    15     6     7   ar
    16     7     8   ar
    17     8     9   ar
    18     9    10   ar
    19    10    13    1
    20    13    15    1
    21    15    16    1
    22    16    17    1
    23    17    18    1
    24    18    19    1
    25    19    20    1
    26    10    11   ar
    27    11    12   ar
    28    12     2   ar
    29    28    22   ar
    30    12     7   ar
    31    20    15    1
    32    13    14    1
@<TRIPOS>MOLECULE
*****
 29 32 0 0 0
SMALL
GASTEIGER

@<TRIPOS>ATOM
      1 C          62.2477   87.7503   10.9392 C.3     1  UNL1        0.1351
      2 N          62.9976   88.2342   12.1449 N.ar    1  UNL1       -0.2760
      3 C          63.3477   89.6867   12.2773 C.ar    1  UNL1        0.2966
      4 O          62.9479   90.6554   11.2040 O.2     1  UNL1       -0.2636
      5 C          64.0976   90.1705   13.4829 C.ar    1  UNL1        0.2013
      6 C          64.4973   89.2019   14.5562 C.ar    1  UNL1        0.0470
      7 C          64.1472   87.7493   14.4238 C.ar    1  UNL1        0.0567
      8 C          64.5469   86.7806   15.4970 C.ar    1  UNL1        0.1049
      9 N          64.1968   85.3281   15.3646 N.ar    1  UNL1       -0.2122
     10 C          63.4470   84.8443   14.1589 C.ar    1  UNL1        0.2182
     11 N          63.0472   85.8129   13.0857 N.ar    1  UNL1       -0.1963
     12 C          63.3973   87.2654   13.2181 C.ar    1  UNL1        0.1506
     13 N          63.0968   83.3917   14.0266 N.pl3   1  UNL1       -0.3044
     14 H          62.7488   82.8965   14.8030 H       1  UNL1        0.1496
     15 C          63.2771   82.6936   12.7112 C.3     1  UNL1        0.0768
     16 C          64.1106   83.3243   11.6354 C.3     1  UNL1        0.0517
     17 C          64.2908   82.6262   10.3200 C.3     1  UNL1        0.1439
     18 O          63.6375   81.2974   10.0805 O.3     1  UNL1       -0.3537
     19 C          62.8039   80.6667   11.1563 C.3     1  UNL1        0.1439
     20 C          62.6237   81.3647   12.4716 C.3     1  UNL1        0.0517
     21 O          64.4477   91.6231   13.6153 O.3     1  UNL1       -0.4464
     22 C          65.7402   92.0273   14.2603 C.ar    1  UNL1        0.1729
     23 C          66.9996   92.0806   13.4473 C.ar    1  UNL1        0.0421
     24 C          68.2921   92.4847   14.0923 C.ar    1  UNL1        0.0329
     25 C          68.3252   92.8357   15.5504 C.ar    1  UNL1        0.1426
     26 F          69.6177   93.2399   16.1953 F       1  UNL1       -0.2041
     27 C          67.0657   92.7825   16.3633 C.ar    1  UNL1        0.0624
     28 C          65.7732   92.3783   15.7183 C.ar    1  UNL1        0.1766
     29 F          64.5137   92.3250   16.5312 F       1  UNL1       -0.2009
@<TRIPOS>BOND
     1     1     2    1
     2     2     3   ar
     3     3     4    2
     4     3     5   ar
     5     5    21    1
     6    21    22    1
     7    22    23   ar
     8    23    24   ar
     9    24    25   ar
    10    25    26    1
    11    25    27   ar
    12    27    28   ar
    13    28    29    1
    14     5     6   ar
    15     6     7   ar
    16     7     8   ar
    17     8     9   ar
    18     9    10   ar
    19    10    13    1
    20    13    15    1
    21    15    16    1
    22    16    17    1
    23    17    18    1
    24    18    19    1
    25    19    20    1
    26    10    11   ar
    27    11    12   ar
    28    12     2   ar
    29    28    22   ar
    30    12     7   ar
    31    20    15    1
    32    13    14    1
@<TRIPOS>MOLECULE
*****
 29 32 0 0 0
SMALL
GASTEIGER

@<TRIPOS>ATOM
      1 C          62.2035   87.8132   10.8447 C.3     1  UNL1        0.1351
      2 N          62.9656   88.3095   12.0375 N.ar    1  UNL1       -0.2760
      3 C          63.3234   89.7620   12.1478 C.ar    1  UNL1        0.2966
      4 O          62.9190   90.7183   11.0652 O.2     1  UNL1       -0.2636
      5 C          64.0855   90.2583   13.3406 C.ar    1  UNL1        0.2013
      6 C          64.4900   89.3020   14.4232 C.ar    1  UNL1        0.0470
      7 C          64.1322   87.8494   14.3130 C.ar    1  UNL1        0.0567
      8 C          64.5366   86.8932   15.3956 C.ar    1  UNL1        0.1049
      9 N          64.1789   85.4407   15.2853 N.ar    1  UNL1       -0.2122
     10 C          63.4167   84.9444   14.0925 C.ar    1  UNL1        0.2182
     11 N          63.0123   85.9007   13.0099 N.ar    1  UNL1       -0.1963
     12 C          63.3700   87.3532   13.1202 C.ar    1  UNL1        0.1506
     13 N          63.0590   83.4918   13.9823 N.pl3   1  UNL1       -0.3044
     14 H          62.7003   83.0126   14.7638 H       1  UNL1        0.1496
     15 C          63.2477   82.7696   12.6813 C.3     1  UNL1        0.0768
     16 C          62.5982   81.4352   12.4631 C.3     1  UNL1        0.0517
     17 C          62.7870   80.7129   11.1620 C.3     1  UNL1        0.1439
     18 O          63.6253   81.3250   10.0792 O.3     1  UNL1       -0.3537
     19 C          64.2749   82.6594   10.2974 C.3     1  UNL1        0.1439
     20 C          64.0861   83.3816   11.5984 C.3     1  UNL1        0.0517
     21 O          64.4433   91.7109   13.4508 O.3     1  UNL1       -0.4464
     22 C          65.7051   92.1215   14.1501 C.ar    1  UNL1        0.1729
     23 C          65.6879   92.4065   15.6227 C.ar    1  UNL1        0.0421
     24 C          66.9497   92.8171   16.3220 C.ar    1  UNL1        0.0329
     25 C          68.2289   92.9429   15.5487 C.ar    1  UNL1        0.1426
     26 F          69.4908   93.3536   16.2480 F       1  UNL1       -0.2041
     27 C          68.2462   92.6580   14.0761 C.ar    1  UNL1        0.0624
     28 C          66.9842   92.2473   13.3768 C.ar    1  UNL1        0.1766
     29 F          67.0015   91.9624   11.9042 F       1  UNL1       -0.2009
@<TRIPOS>BOND
     1     1     2    1
     2     2     3   ar
     3     3     4    2
     4     3     5   ar
     5     5    21    1
     6    21    22    1
     7    22    23   ar
     8    23    24   ar
     9    24    25   ar
    10    25    26    1
    11    25    27   ar
    12    27    28   ar
    13    28    29    1
    14     5     6   ar
    15     6     7   ar
    16     7     8   ar
    17     8     9   ar
    18     9    10   ar
    19    10    13    1
    20    13    15    1
    21    15    16    1
    22    16    17    1
    23    17    18    1
    24    18    19    1
    25    19    20    1
    26    10    11   ar
    27    11    12   ar
    28    12     2   ar
    29    28    22   ar
    30    12     7   ar
    31    20    15    1
    32    13    14    1
@<TRIPOS>MOLECULE
*****
 29 32 0 0 0
SMALL
GASTEIGER

@<TRIPOS>ATOM
      1 C          61.4801   85.6130    9.8131 C.3     1  UNL1        0.1351
      2 N          61.0550   87.0134    9.4842 N.ar    1  UNL1       -0.2760
      3 C          60.1429   87.2666    8.3206 C.ar    1  UNL1        0.2966
      4 O          59.6557   86.1193    7.4860 O.2     1  UNL1       -0.2636
      5 C          59.7178   88.6670    7.9917 C.ar    1  UNL1        0.2013
      6 C          60.2049   89.8142    8.8262 C.ar    1  UNL1        0.0470
      7 C          61.1171   89.5611    9.9898 C.ar    1  UNL1        0.0567
      8 C          61.6042   90.7083   10.8244 C.ar    1  UNL1        0.1049
      9 N          62.5164   90.4552   11.9879 N.ar    1  UNL1       -0.2122
     10 C          62.9415   89.0548   12.3169 C.ar    1  UNL1        0.2182
     11 N          62.4543   87.9076   11.4823 N.ar    1  UNL1       -0.1963
     12 C          61.5422   88.1607   10.3188 C.ar    1  UNL1        0.1506
     13 N          63.8537   88.8017   13.4804 N.pl3   1  UNL1       -0.3044
     14 H          64.2038   87.8961   13.6435 H       1  UNL1        0.1496
     15 C          64.2324   89.9282   14.3955 C.3     1  UNL1        0.0768
     16 C          63.4714   90.1480   15.6693 C.3     1  UNL1        0.0517
     17 C          63.8502   91.2746   16.5844 C.3     1  UNL1        0.1439
     18 O          64.9898   92.1815   16.2256 O.3     1  UNL1       -0.3537
     19 C          65.7508   91.9617   14.9518 C.3     1  UNL1        0.1439
     20 C          65.3721   90.8352   14.0367 C.3     1  UNL1        0.0517
     21 O          58.8056   88.9201    6.8281 O.3     1  UNL1       -0.4464
     22 C          59.0841   90.0570    5.8902 C.ar    1  UNL1        0.1729
     23 C          60.4971   90.3855    5.5085 C.ar    1  UNL1        0.0421
     24 C          60.7757   91.5224    4.5706 C.ar    1  UNL1        0.0329
     25 C          59.6412   92.3310    4.0143 C.ar    1  UNL1        0.1426
     26 F          59.9198   93.4679    3.0763 F       1  UNL1       -0.2041
     27 C          58.2283   92.0025    4.3959 C.ar    1  UNL1        0.0624
     28 C          57.9498   90.8655    5.3339 C.ar    1  UNL1        0.1766
     29 F          56.5368   90.5371    5.7156 F       1  UNL1       -0.2009
@<TRIPOS>BOND
     1     1     2    1
     2     2     3   ar
     3     3     4    2
     4     3     5   ar
     5     5    21    1
     6    21    22    1
     7    22    23   ar
     8    23    24   ar
     9    24    25   ar
    10    25    26    1
    11    25    27   ar
    12    27    28   ar
    13    28    29    1
    14     5     6   ar
    15     6     7   ar
    16     7     8   ar
    17     8     9   ar
    18     9    10   ar
    19    10    13    1
    20    13    15    1
    21    15    16    1
    22    16    17    1
    23    17    18    1
    24    18    19    1
    25    19    20    1
    26    10    11   ar
    27    11    12   ar
    28    12     2   ar
    29    28    22   ar
    30    12     7   ar
    31    20    15    1
    32    13    14    1
@<TRIPOS>MOLECULE
*****
 29 32 0 0 0
SMALL
GASTEIGER

@<TRIPOS>ATOM
      1 C          61.9218   87.7547   10.6715 C.3     1  UNL1        0.1351
      2 N          62.7519   88.3492   11.7705 N.ar    1  UNL1       -0.2760
      3 C          63.0716   89.8146   11.7598 C.ar    1  UNL1        0.2966
      4 O          62.5614   90.6856   10.6503 O.2     1  UNL1       -0.2636
      5 C          63.9016   90.4091   12.8588 C.ar    1  UNL1        0.2013
      6 C          64.4119   89.5382   13.9683 C.ar    1  UNL1        0.0470
      7 C          64.0921   88.0727   13.9790 C.ar    1  UNL1        0.0567
      8 C          64.6023   87.2018   15.0885 C.ar    1  UNL1        0.1049
      9 N          64.2825   85.7363   15.0991 N.ar    1  UNL1       -0.2122
     10 C          63.4525   85.1418   14.0002 C.ar    1  UNL1        0.2182
     11 N          62.9423   86.0127   12.8906 N.ar    1  UNL1       -0.1963
     12 C          63.2621   87.4782   12.8800 C.ar    1  UNL1        0.1506
     13 N          63.1328   83.6763   14.0108 N.pl3   1  UNL1       -0.3044
     14 H          62.8328   83.2439   14.8429 H       1  UNL1        0.1496
     15 C          63.2701   82.8695   12.7538 C.3     1  UNL1        0.0768
     16 C          62.5787   81.5437   12.6342 C.3     1  UNL1        0.0517
     17 C          62.7161   80.7369   11.3771 C.3     1  UNL1        0.1439
     18 O          63.5447   81.2560   10.2396 O.3     1  UNL1       -0.3537
     19 C          64.2360   82.5818   10.3591 C.3     1  UNL1        0.1439
     20 C          64.0987   83.3886   11.6162 C.3     1  UNL1        0.0517
     21 O          64.2214   91.8747   12.8481 O.3     1  UNL1       -0.4464
     22 C          65.3340   92.3933   11.9861 C.ar    1  UNL1        0.1729
     23 C          65.0191   93.1446   10.7266 C.ar    1  UNL1        0.0421
     24 C          66.1316   93.6633    9.8646 C.ar    1  UNL1        0.0329
     25 C          67.5592   93.4306   10.2620 C.ar    1  UNL1        0.1426
     26 F          68.6718   93.9492    9.4000 F       1  UNL1       -0.2041
     27 C          67.8742   92.6793   11.5215 C.ar    1  UNL1        0.0624
     28 C          66.7615   92.1606   12.3836 C.ar    1  UNL1        0.1766
     29 F          67.0764   91.4093   13.6431 F       1  UNL1       -0.2009
@<TRIPOS>BOND
     1     1     2    1
     2     2     3   ar
     3     3     4    2
     4     3     5   ar
     5     5    21    1
     6    21    22    1
     7    22    23   ar
     8    23    24   ar
     9    24    25   ar
    10    25    26    1
    11    25    27   ar
    12    27    28   ar
    13    28    29    1
    14     5     6   ar
    15     6     7   ar
    16     7     8   ar
    17     8     9   ar
    18     9    10   ar
    19    10    13    1
    20    13    15    1
    21    15    16    1
    22    16    17    1
    23    17    18    1
    24    18    19    1
    25    19    20    1
    26    10    11   ar
    27    11    12   ar
    28    12     2   ar
    29    28    22   ar
    30    12     7   ar
    31    20    15    1
    32    13    14    1
@<TRIPOS>MOLECULE
*****
 29 32 0 0 0
SMALL
GASTEIGER

@<TRIPOS>ATOM
      1 C          64.5927   88.6802   14.9234 C.3     1  UNL1        0.1351
      2 N          64.3777   89.6000   13.7581 N.ar    1  UNL1       -0.2760
      3 C          64.9359   90.9919   13.7883 C.ar    1  UNL1        0.2966
      4 O          65.7093   91.4641   14.9838 O.2     1  UNL1       -0.2636
      5 C          64.7208   91.9117   12.6231 C.ar    1  UNL1        0.2013
      6 C          63.9475   91.4396   11.4277 C.ar    1  UNL1        0.0470
      7 C          63.3892   90.0476   11.3975 C.ar    1  UNL1        0.0567
      8 C          62.6159   89.5755   10.2021 C.ar    1  UNL1        0.1049
      9 N          62.0577   88.1836   10.1719 N.ar    1  UNL1       -0.2122
     10 C          62.2727   87.2638   11.3371 C.ar    1  UNL1        0.2182
     11 N          63.0461   87.7359   12.5325 N.ar    1  UNL1       -0.1963
     12 C          63.6043   89.1278   12.5627 C.ar    1  UNL1        0.1506
     13 N          61.7144   85.8719   11.3069 N.pl3   1  UNL1       -0.3044
     14 H          60.7920   85.7181   10.9993 H       1  UNL1        0.1496
     15 C          62.5617   84.7143   11.7453 C.3     1  UNL1        0.0768
     16 C          63.3766   84.8143   13.0006 C.3     1  UNL1        0.0517
     17 C          64.2239   83.6567   13.4390 C.3     1  UNL1        0.1439
     18 O          64.2561   82.3991   12.6221 O.3     1  UNL1       -0.3537
     19 C          63.4411   82.2991   11.3668 C.3     1  UNL1        0.1439
     20 C          62.5939   83.4566   10.9284 C.3     1  UNL1        0.0517
     21 O          65.2791   93.3036   12.6533 O.3     1  UNL1       -0.4464
     22 C          66.0474   93.8293   11.4772 C.ar    1  UNL1        0.1729
     23 C          66.5927   92.8793   10.4524 C.ar    1  UNL1        0.0421
     24 C          67.3610   93.4049    9.2762 C.ar    1  UNL1        0.0329
     25 C          67.5841   94.8806    9.1249 C.ar    1  UNL1        0.1426
     26 F          68.3524   95.4062    7.9487 F       1  UNL1       -0.2041
     27 C          67.0388   95.8305   10.1497 C.ar    1  UNL1        0.0624
     28 C          66.2704   95.3048   11.3259 C.ar    1  UNL1        0.1766
     29 F          65.7251   96.2547   12.3507 F       1  UNL1       -0.2009
@<TRIPOS>BOND
     1     1     2    1
     2     2     3   ar
     3     3     4    2
     4     3     5   ar
     5     5    21    1
     6    21    22    1
     7    22    23   ar
     8    23    24   ar
     9    24    25   ar
    10    25    26    1
    11    25    27   ar
    12    27    28   ar
    13    28    29    1
    14     5     6   ar
    15     6     7   ar
    16     7     8   ar
    17     8     9   ar
    18     9    10   ar
    19    10    13    1
    20    13    15    1
    21    15    16    1
    22    16    17    1
    23    17    18    1
    24    18    19    1
    25    19    20    1
    26    10    11   ar
    27    11    12   ar
    28    12     2   ar
    29    28    22   ar
    30    12     7   ar
    31    20    15    1
    32    13    14    1
@<TRIPOS>MOLECULE
*****
 29 32 0 0 0
SMALL
GASTEIGER

@<TRIPOS>ATOM
      1 C          61.7668   85.7632   10.3620 C.3     1  UNL1        0.1351
      2 N          61.3282   87.1271    9.9177 N.ar    1  UNL1       -0.2760
      3 C          60.3752   87.2711    8.7684 C.ar    1  UNL1        0.2966
      4 O          59.8608   86.0512    8.0632 O.2     1  UNL1       -0.2636
      5 C          59.9367   88.6350    8.3241 C.ar    1  UNL1        0.2013
      6 C          60.4511   89.8549    9.0291 C.ar    1  UNL1        0.0470
      7 C          61.4041   89.7110   10.1786 C.ar    1  UNL1        0.0567
      8 C          61.9185   90.9309   10.8836 C.ar    1  UNL1        0.1049
      9 N          62.8714   90.7869   12.0330 N.ar    1  UNL1       -0.2122
     10 C          63.3100   89.4230   12.4773 C.ar    1  UNL1        0.2182
     11 N          62.7956   88.2030   11.7722 N.ar    1  UNL1       -0.1963
     12 C          61.8427   88.3471   10.6229 C.ar    1  UNL1        0.1506
     13 N          64.2630   89.2790   13.6267 N.pl3   1  UNL1       -0.3044
     14 H          65.0991   89.7987   13.6410 H       1  UNL1        0.1496
     15 C          63.9422   88.3433   14.7543 C.3     1  UNL1        0.0768
     16 C          63.2853   88.8648   15.9979 C.3     1  UNL1        0.0517
     17 C          62.9645   87.9290   17.1255 C.3     1  UNL1        0.1439
     18 O          63.3006   86.4717   17.0095 O.3     1  UNL1       -0.3537
     19 C          63.9574   85.9502   15.7659 C.3     1  UNL1        0.1439
     20 C          64.2783   86.8860   14.6383 C.3     1  UNL1        0.0517
     21 O          58.9837   88.7790    7.1746 O.3     1  UNL1       -0.4464
     22 C          59.1636   89.8927    6.1862 C.ar    1  UNL1        0.1729
     23 C          60.5392   90.2651    5.7180 C.ar    1  UNL1        0.0421
     24 C          60.7191   91.3788    4.7295 C.ar    1  UNL1        0.0329
     25 C          59.5235   92.1203    4.2092 C.ar    1  UNL1        0.1426
     26 F          59.7034   93.2341    3.2207 F       1  UNL1       -0.2041
     27 C          58.1479   91.7480    4.6774 C.ar    1  UNL1        0.0624
     28 C          57.9680   90.6342    5.6659 C.ar    1  UNL1        0.1766
     29 F          56.5924   90.2618    6.1341 F       1  UNL1       -0.2009
@<TRIPOS>BOND
     1     1     2    1
     2     2     3   ar
     3     3     4    2
     4     3     5   ar
     5     5    21    1
     6    21    22    1
     7    22    23   ar
     8    23    24   ar
     9    24    25   ar
    10    25    26    1
    11    25    27   ar
    12    27    28   ar
    13    28    29    1
    14     5     6   ar
    15     6     7   ar
    16     7     8   ar
    17     8     9   ar
    18     9    10   ar
    19    10    13    1
    20    13    15    1
    21    15    16    1
    22    16    17    1
    23    17    18    1
    24    18    19    1
    25    19    20    1
    26    10    11   ar
    27    11    12   ar
    28    12     2   ar
    29    28    22   ar
    30    12     7   ar
    31    20    15    1
    32    13    14    1
@<TRIPOS>MOLECULE
*****
 29 32 0 0 0
SMALL
GASTEIGER

@<TRIPOS>ATOM
      1 C          64.3342   86.3833   14.4416 C.3     1  UNL1        0.1351
      2 N          63.5293   87.1392   13.4263 N.ar    1  UNL1       -0.2760
      3 C          62.6081   86.4024   12.4999 C.ar    1  UNL1        0.2966
      4 O          62.4917   84.9095   12.5886 O.2     1  UNL1       -0.2636
      5 C          61.8032   87.1583   11.4846 C.ar    1  UNL1        0.2013
      6 C          61.9196   88.6511   11.3958 C.ar    1  UNL1        0.0470
      7 C          62.8409   89.3881   12.3223 C.ar    1  UNL1        0.0567
      8 C          62.9572   90.8809   12.2335 C.ar    1  UNL1        0.1049
      9 N          63.8784   91.6177   13.1599 N.ar    1  UNL1       -0.2122
     10 C          64.6833   90.8618   14.1752 C.ar    1  UNL1        0.2182
     11 N          64.5670   89.3690   14.2640 N.ar    1  UNL1       -0.1963
     12 C          63.6457   88.6321   13.3376 C.ar    1  UNL1        0.1506
     13 N          65.6046   91.5987   15.1017 N.pl3   1  UNL1       -0.3044
     14 H          65.2774   91.9098   15.9766 H       1  UNL1        0.1496
     15 C          67.0243   91.8617   14.6951 C.3     1  UNL1        0.0768
     16 C          67.4615   91.5985   13.2846 C.3     1  UNL1        0.0517
     17 C          68.8813   91.8615   12.8781 C.3     1  UNL1        0.1439
     18 O          69.8637   92.3877   13.8820 O.3     1  UNL1       -0.3537
     19 C          69.4264   92.6508   15.2926 C.3     1  UNL1        0.1439
     20 C          68.0068   92.3879   15.6991 C.3     1  UNL1        0.0517
     21 O          60.8820   86.4214   10.5582 O.3     1  UNL1       -0.4464
     22 C          61.3959   85.8965    9.2504 C.ar    1  UNL1        0.1729
     23 C          62.8024   85.3856    9.1479 C.ar    1  UNL1        0.0421
     24 C          63.3163   84.8607    7.8401 C.ar    1  UNL1        0.0329
     25 C          62.4236   84.8467    6.6347 C.ar    1  UNL1        0.1426
     26 F          62.9375   84.3218    5.3269 F       1  UNL1       -0.2041
     27 C          61.0170   85.3575    6.7372 C.ar    1  UNL1        0.0624
     28 C          60.5031   85.8825    8.0451 C.ar    1  UNL1        0.1766
     29 F          59.0966   86.3934    8.1475 F       1  UNL1       -0.2009
@<TRIPOS>BOND
     1     1     2    1
     2     2     3   ar
     3     3     4    2
     4     3     5   ar
     5     5    21    1
     6    21    22    1
     7    22    23   ar
     8    23    24   ar
     9    24    25   ar
    10    25    26    1
    11    25    27   ar
    12    27    28   ar
    13    28    29    1
    14     5     6   ar
    15     6     7   ar
    16     7     8   ar
    17     8     9   ar
    18     9    10   ar
    19    10    13    1
    20    13    15    1
    21    15    16    1
    22    16    17    1
    23    17    18    1
    24    18    19    1
    25    19    20    1
    26    10    11   ar
    27    11    12   ar
    28    12     2   ar
    29    28    22   ar
    30    12     7   ar
    31    20    15    1
    32    13    14    1
