@<TRIPOS>MOLECULE
*****
 42 46 0 0 0
SMALL
GASTEIGER

@<TRIPOS>ATOM
      1 C          60.0370   93.0506    1.6262 C.2     1  UNL1        0.2267
      2 O          59.9949   91.6260    1.1583 O.2     1  UNL1       -0.2747
      3 N          59.8367   93.3694    3.0781 N.am    1  UNL1       -0.3056
      4 H          59.8643   94.3044    3.3851 H       1  UNL1        0.1494
      5 C          59.5942   92.2636    4.0623 C.3     1  UNL1        0.0743
      6 C          58.2003   91.9697    4.5318 C.3     1  UNL1        0.0369
      7 C          57.9580   90.8640    5.5160 C.3     1  UNL1        0.0741
      8 N          59.1095   90.0522    6.0306 N.3     1  UNL1       -0.2688
      9 C          60.5035   90.3461    5.5611 C.3     1  UNL1        0.0741
     10 C          60.7458   91.4518    4.5769 C.3     1  UNL1        0.0369
     11 C          58.8671   88.9465    7.0149 C.3     1  UNL1        0.0992
     12 C          59.9093   88.6140    8.0411 C.ar    1  UNL1       -0.0031
     13 C          60.7009   87.3455    7.9225 C.ar    1  UNL1       -0.0027
     14 C          61.7432   87.0131    8.9489 C.ar    1  UNL1        0.0029
     15 C          61.9937   87.9492   10.0938 C.ar    1  UNL1        0.0375
     16 C          61.2021   89.2178   10.2124 C.ar    1  UNL1        0.1451
     17 C          60.1599   89.5502    9.1861 C.ar    1  UNL1        0.0346
     18 O          61.4526   90.1539   11.3573 O.3     1  UNL1       -0.4527
     19 C          62.7832   90.8330   11.4935 C.ar    1  UNL1        0.1557
     20 C          63.3896   91.5375   10.3162 C.ar    1  UNL1        0.0384
     21 C          64.7201   92.2166   10.4523 C.ar    1  UNL1        0.0032
     22 C          65.4441   92.1913   11.7657 C.ar    1  UNL1        0.0011
     23 C          64.8377   91.4868   12.9430 C.ar    1  UNL1        0.0145
     24 C          63.5072   90.8077   12.8069 C.ar    1  UNL1        0.0921
     25 CL         62.9008   90.1032   13.9841 Cl      1  UNL1       -0.0791
     26 N          58.4411   95.0274   -0.6817 N.3     1  UNL1       -0.2700
     27 C          59.6822   95.7797   -1.0605 C.3     1  UNL1        0.0732
     28 C          60.8184   95.2413   -0.2425 C.3     1  UNL1        0.0314
     29 C          60.2794   94.1563    0.6419 C.3     1  UNL1        0.1035
     30 C          58.8101   94.0241    0.3705 C.3     1  UNL1        0.0851
     31 C          61.6980   94.0573    1.1192 C.ar    1  UNL1       -0.0133
     32 C          62.3459   92.7131    1.2716 C.ar    1  UNL1       -0.0038
     33 C          63.7646   92.6140    1.7488 C.ar    1  UNL1       -0.0003
     34 C          64.5353   93.8592    2.0737 C.ar    1  UNL1       -0.0000
     35 C          63.8873   95.2035    1.9213 C.ar    1  UNL1       -0.0003
     36 C          62.4687   95.3025    1.4440 C.ar    1  UNL1       -0.0038
     37 C          56.8278   93.7612   -1.2239 C.3     1  UNL1        0.0217
     38 C          57.0713   95.2410   -1.2545 C.3     1  UNL1        0.0775
     39 C          57.3148   96.7209   -1.2850 C.3     1  UNL1        0.0217
     40 C          55.7015   95.4545   -1.8273 C.2     1  UNL1        0.0632
     41 O          54.6774   96.2302   -1.0532 O.co2   1  UNL1       -0.5479
     42 O          55.3559   94.8923   -3.1744 O.co2   1  UNL1       -0.5479
@<TRIPOS>UNITY_ATOM_ATTR
41 1
charge -1
@<TRIPOS>BOND
     1    37    38    1
     2    38    39    1
     3    38    40    1
     4    40    41   ar
     5    40    42   ar
     6    38    26    1
     7    26    27    1
     8    27    28    1
     9    28    29    1
    10    29     1    1
    11     1     2    2
    12     1     3   am
    13     3     5    1
    14     5     6    1
    15     6     7    1
    16     7     8    1
    17     8    11    1
    18    11    12    1
    19    12    13   ar
    20    13    14   ar
    21    14    15   ar
    22    15    16   ar
    23    16    18    1
    24    18    19    1
    25    19    20   ar
    26    20    21   ar
    27    21    22   ar
    28    22    23   ar
    29    23    24   ar
    30    24    25    1
    31    16    17   ar
    32     8     9    1
    33     9    10    1
    34    29    31    1
    35    31    32   ar
    36    32    33   ar
    37    33    34   ar
    38    34    35   ar
    39    35    36   ar
    40    29    30    1
    41    30    26    1
    42    10     5    1
    43    36    31   ar
    44    17    12   ar
    45    24    19   ar
    46     3     4    1
@<TRIPOS>MOLECULE
*****
 42 46 0 0 0
SMALL
GASTEIGER

@<TRIPOS>ATOM
      1 C          62.4341   86.2785   11.7261 C.2     1  UNL1        0.2267
      2 O          61.5613   85.2040   11.1484 O.2     1  UNL1       -0.2747
      3 N          62.4342   87.6509   11.1208 N.am    1  UNL1       -0.3056
      4 H          63.0071   88.3561   11.5000 H       1  UNL1        0.1494
      5 C          61.5613   87.9489    9.9378 C.3     1  UNL1        0.0743
      6 C          61.1865   86.8512    8.9869 C.3     1  UNL1        0.0369
      7 C          60.3137   87.1493    7.8039 C.3     1  UNL1        0.0741
      8 N          59.8158   88.5451    7.5720 N.3     1  UNL1       -0.2688
      9 C          60.1906   89.6428    8.5230 C.3     1  UNL1        0.0741
     10 C          61.0634   89.3447    9.7059 C.3     1  UNL1        0.0369
     11 C          58.9429   88.8431    6.3890 C.3     1  UNL1        0.0992
     12 C          59.1224   90.1233    5.6281 C.ar    1  UNL1       -0.0031
     13 C          57.9788   91.0852    5.4983 C.ar    1  UNL1       -0.0027
     14 C          58.1582   92.3654    4.7374 C.ar    1  UNL1        0.0029
     15 C          59.4813   92.6837    4.1064 C.ar    1  UNL1        0.0375
     16 C          60.6249   91.7218    4.2362 C.ar    1  UNL1        0.1451
     17 C          60.4455   90.4416    4.9971 C.ar    1  UNL1        0.0346
     18 O          61.9479   92.0400    3.6052 O.3     1  UNL1       -0.4527
     19 C          62.0115   92.4557    2.1653 C.ar    1  UNL1        0.1557
     20 C          60.9519   92.0011    1.2059 C.ar    1  UNL1        0.0384
     21 C          61.0154   92.4168   -0.2339 C.ar    1  UNL1        0.0032
     22 C          62.1386   93.2871   -0.7143 C.ar    1  UNL1        0.0011
     23 C          63.1983   93.7417    0.2451 C.ar    1  UNL1        0.0145
     24 C          63.1348   93.3260    1.6849 C.ar    1  UNL1        0.0921
     25 CL         64.1944   93.7807    2.6443 Cl      1  UNL1       -0.0791
     26 N          63.9008   87.7534   14.4564 N.3     1  UNL1       -0.2700
     27 C          64.5443   86.4858   14.9349 C.3     1  UNL1        0.0732
     28 C          64.1773   85.3900   13.9786 C.3     1  UNL1        0.0314
     29 C          63.3069   85.9804   12.9091 C.3     1  UNL1        0.1035
     30 C          63.1361   87.4411   13.2044 C.3     1  UNL1        0.0851
     31 C          63.2954   84.5821   12.3665 C.ar    1  UNL1       -0.0133
     32 C          63.9508   84.2827   11.0509 C.ar    1  UNL1       -0.0038
     33 C          63.9392   82.8843   10.5082 C.ar    1  UNL1       -0.0003
     34 C          63.2722   81.7853   11.2811 C.ar    1  UNL1       -0.0000
     35 C          62.6168   82.0847   12.5967 C.ar    1  UNL1       -0.0003
     36 C          62.6283   83.4831   13.1394 C.ar    1  UNL1       -0.0038
     37 C          64.5233   89.6838   13.8352 C.3     1  UNL1        0.0217
     38 C          64.0039   89.0974   15.1144 C.3     1  UNL1        0.0775
     39 C          63.4845   88.5110   16.3937 C.3     1  UNL1        0.0217
     40 C          64.1071   90.4415   15.7724 C.2     1  UNL1        0.0632
     41 O          65.1745   91.4052   15.3463 O.co2   1  UNL1       -0.5479
     42 O          63.1426   90.8217   16.8566 O.co2   1  UNL1       -0.5479
@<TRIPOS>UNITY_ATOM_ATTR
41 1
charge -1
@<TRIPOS>BOND
     1    37    38    1
     2    38    39    1
     3    38    40    1
     4    40    41   ar
     5    40    42   ar
     6    38    26    1
     7    26    27    1
     8    27    28    1
     9    28    29    1
    10    29     1    1
    11     1     2    2
    12     1     3   am
    13     3     5    1
    14     5     6    1
    15     6     7    1
    16     7     8    1
    17     8    11    1
    18    11    12    1
    19    12    13   ar
    20    13    14   ar
    21    14    15   ar
    22    15    16   ar
    23    16    18    1
    24    18    19    1
    25    19    20   ar
    26    20    21   ar
    27    21    22   ar
    28    22    23   ar
    29    23    24   ar
    30    24    25    1
    31    16    17   ar
    32     8     9    1
    33     9    10    1
    34    29    31    1
    35    31    32   ar
    36    32    33   ar
    37    33    34   ar
    38    34    35   ar
    39    35    36   ar
    40    29    30    1
    41    30    26    1
    42    10     5    1
    43    36    31   ar
    44    17    12   ar
    45    24    19   ar
    46     3     4    1
@<TRIPOS>MOLECULE
*****
 42 46 0 0 0
SMALL
GASTEIGER

@<TRIPOS>ATOM
      1 C          60.1151   93.0899    1.6216 C.2     1  UNL1        0.2267
      2 O          60.2262   91.6684    1.1557 O.2     1  UNL1       -0.2747
      3 N          59.8254   93.3863    3.0631 N.am    1  UNL1       -0.3056
      4 H          59.7525   94.3193    3.3689 H       1  UNL1        0.1494
      5 C          59.6468   92.2611    4.0390 C.3     1  UNL1        0.0743
      6 C          60.8340   91.4612    4.4869 C.3     1  UNL1        0.0369
      7 C          60.6553   90.3361    5.4627 C.3     1  UNL1        0.0741
      8 N          59.2894   90.0109    5.9905 N.3     1  UNL1       -0.2688
      9 C          58.1022   90.8108    5.5426 C.3     1  UNL1        0.0741
     10 C          58.2809   91.9359    4.5669 C.3     1  UNL1        0.0369
     11 C          59.1108   88.8858    6.9664 C.3     1  UNL1        0.0992
     12 C          59.9039   88.8640    8.2394 C.ar    1  UNL1       -0.0031
     13 C          60.5576   90.1189    8.7373 C.ar    1  UNL1       -0.0027
     14 C          61.3507   90.0971   10.0103 C.ar    1  UNL1        0.0029
     15 C          61.4900   88.8205   10.7854 C.ar    1  UNL1        0.0375
     16 C          60.8363   87.5656   10.2875 C.ar    1  UNL1        0.1451
     17 C          60.0432   87.5873    9.0145 C.ar    1  UNL1        0.0346
     18 O          60.9756   86.2890   11.0626 O.3     1  UNL1       -0.4527
     19 C          62.0785   85.3274   10.7320 C.ar    1  UNL1        0.1557
     20 C          62.5227   85.1559    9.3096 C.ar    1  UNL1        0.0384
     21 C          63.6255   84.1944    8.9791 C.ar    1  UNL1        0.0032
     22 C          64.2840   83.4044   10.0709 C.ar    1  UNL1        0.0011
     23 C          63.8398   83.5759   11.4933 C.ar    1  UNL1        0.0145
     24 C          62.7370   84.5374   11.8239 C.ar    1  UNL1        0.0921
     25 CL         62.2928   84.7090   13.2463 Cl      1  UNL1       -0.0791
     26 N          58.4031   95.0052   -0.6548 N.3     1  UNL1       -0.2700
     27 C          59.6019   95.8217   -1.0367 C.3     1  UNL1        0.0732
     28 C          60.7705   95.3334   -0.2329 C.3     1  UNL1        0.0314
     29 C          60.2937   94.2151    0.6457 C.3     1  UNL1        0.1035
     30 C          58.8306   94.0122    0.3850 C.3     1  UNL1        0.0851
     31 C          61.7195   94.1827    1.1105 C.ar    1  UNL1       -0.0133
     32 C          62.4408   92.8727    1.2268 C.ar    1  UNL1       -0.0038
     33 C          63.8667   92.8403    1.6916 C.ar    1  UNL1       -0.0003
     34 C          64.5712   94.1179    2.0401 C.ar    1  UNL1       -0.0000
     35 C          63.8499   95.4279    1.9238 C.ar    1  UNL1       -0.0003
     36 C          62.4240   95.4603    1.4590 C.ar    1  UNL1       -0.0038
     37 C          56.8951   93.6633   -1.3069 C.3     1  UNL1        0.0217
     38 C          57.0195   95.1552   -1.2144 C.3     1  UNL1        0.0775
     39 C          57.1439   96.6473   -1.1219 C.3     1  UNL1        0.0217
     40 C          55.6359   95.3053   -1.7741 C.2     1  UNL1        0.0632
     41 O          54.6801   94.1501   -1.7311 O.co2   1  UNL1       -0.5479
     42 O          55.2081   96.6106   -2.3769 O.co2   1  UNL1       -0.5479
@<TRIPOS>UNITY_ATOM_ATTR
41 1
charge -1
@<TRIPOS>BOND
     1    37    38    1
     2    38    39    1
     3    38    40    1
     4    40    41   ar
     5    40    42   ar
     6    38    26    1
     7    26    27    1
     8    27    28    1
     9    28    29    1
    10    29     1    1
    11     1     2    2
    12     1     3   am
    13     3     5    1
    14     5     6    1
    15     6     7    1
    16     7     8    1
    17     8    11    1
    18    11    12    1
    19    12    13   ar
    20    13    14   ar
    21    14    15   ar
    22    15    16   ar
    23    16    18    1
    24    18    19    1
    25    19    20   ar
    26    20    21   ar
    27    21    22   ar
    28    22    23   ar
    29    23    24   ar
    30    24    25    1
    31    16    17   ar
    32     8     9    1
    33     9    10    1
    34    29    31    1
    35    31    32   ar
    36    32    33   ar
    37    33    34   ar
    38    34    35   ar
    39    35    36   ar
    40    29    30    1
    41    30    26    1
    42    10     5    1
    43    36    31   ar
    44    17    12   ar
    45    24    19   ar
    46     3     4    1
@<TRIPOS>MOLECULE
*****
 42 46 0 0 0
SMALL
GASTEIGER

@<TRIPOS>ATOM
      1 C          62.3606   87.5276   11.9535 C.2     1  UNL1        0.2267
      2 O          61.3519   88.5640   12.3515 O.2     1  UNL1       -0.2747
      3 N          62.4331   87.0591   10.5304 N.am    1  UNL1       -0.3056
      4 H          63.0952   86.3790   10.2692 H       1  UNL1        0.1494
      5 C          61.4969   87.6270    9.5052 C.3     1  UNL1        0.0743
      6 C          61.2795   89.1091    9.4272 C.3     1  UNL1        0.0369
      7 C          60.3433   89.6770    8.4021 C.3     1  UNL1        0.0741
      8 N          59.6244   88.7627    7.4549 N.3     1  UNL1       -0.2688
      9 C          59.8417   87.2806    7.5328 C.3     1  UNL1        0.0741
     10 C          60.7779   86.7128    8.5579 C.3     1  UNL1        0.0369
     11 C          58.6881   89.3306    6.4296 C.3     1  UNL1        0.0992
     12 C          59.1407   90.4490    5.5385 C.ar    1  UNL1       -0.0031
     13 C          58.2012   91.5701    5.2060 C.ar    1  UNL1       -0.0027
     14 C          58.6538   92.6886    4.3148 C.ar    1  UNL1        0.0029
     15 C          60.0459   92.6860    3.7562 C.ar    1  UNL1        0.0375
     16 C          60.9854   91.5649    4.0887 C.ar    1  UNL1        0.1451
     17 C          60.5328   90.4465    4.9798 C.ar    1  UNL1        0.0346
     18 O          62.3775   91.5623    3.5301 O.3     1  UNL1       -0.4527
     19 C          62.7601   92.5470    2.4651 C.ar    1  UNL1        0.1557
     20 C          63.7558   93.6278    2.7658 C.ar    1  UNL1        0.0384
     21 C          64.1384   94.6124    1.7009 C.ar    1  UNL1        0.0032
     22 C          63.5254   94.5162    0.3353 C.ar    1  UNL1        0.0011
     23 C          62.5298   93.4354    0.0346 C.ar    1  UNL1        0.0145
     24 C          62.1471   92.4508    1.0995 C.ar    1  UNL1        0.0921
     25 CL         61.1514   91.3699    0.7988 Cl      1  UNL1       -0.0791
     26 N          63.4128   84.5595   13.3189 N.3     1  UNL1       -0.2700
     27 C          64.3795   85.2088   14.2643 C.3     1  UNL1        0.0732
     28 C          64.3079   86.6923   14.0540 C.3     1  UNL1        0.0314
     29 C          63.2969   86.9597   12.9787 C.3     1  UNL1        0.1035
     30 C          62.7437   85.6416   12.5244 C.3     1  UNL1        0.0851
     31 C          63.6543   88.3966   13.2187 C.ar    1  UNL1       -0.0133
     32 C          63.5549   89.3910   12.1001 C.ar    1  UNL1       -0.0038
     33 C          63.9124   90.8280   12.3401 C.ar    1  UNL1       -0.0003
     34 C          64.3692   91.2704   13.6986 C.ar    1  UNL1       -0.0000
     35 C          64.4687   90.2760   14.8171 C.ar    1  UNL1       -0.0003
     36 C          64.1112   88.8390   14.5772 C.ar    1  UNL1       -0.0038
     37 C          63.0637   82.9731   14.6832 C.3     1  UNL1        0.0217
     38 C          63.1596   83.0866   13.1906 C.3     1  UNL1        0.0775
     39 C          63.2555   83.2001   11.6979 C.3     1  UNL1        0.0217
     40 C          62.9064   81.6136   13.0623 C.2     1  UNL1        0.0632
     41 O          62.7806   80.7644   14.2923 O.co2   1  UNL1       -0.5479
     42 O          62.7791   80.9900   11.7040 O.co2   1  UNL1       -0.5479
@<TRIPOS>UNITY_ATOM_ATTR
41 1
charge -1
@<TRIPOS>BOND
     1    37    38    1
     2    38    39    1
     3    38    40    1
     4    40    41   ar
     5    40    42   ar
     6    38    26    1
     7    26    27    1
     8    27    28    1
     9    28    29    1
    10    29     1    1
    11     1     2    2
    12     1     3   am
    13     3     5    1
    14     5     6    1
    15     6     7    1
    16     7     8    1
    17     8    11    1
    18    11    12    1
    19    12    13   ar
    20    13    14   ar
    21    14    15   ar
    22    15    16   ar
    23    16    18    1
    24    18    19    1
    25    19    20   ar
    26    20    21   ar
    27    21    22   ar
    28    22    23   ar
    29    23    24   ar
    30    24    25    1
    31    16    17   ar
    32     8     9    1
    33     9    10    1
    34    29    31    1
    35    31    32   ar
    36    32    33   ar
    37    33    34   ar
    38    34    35   ar
    39    35    36   ar
    40    29    30    1
    41    30    26    1
    42    10     5    1
    43    36    31   ar
    44    17    12   ar
    45    24    19   ar
    46     3     4    1
@<TRIPOS>MOLECULE
*****
 42 46 0 0 0
SMALL
GASTEIGER

@<TRIPOS>ATOM
      1 C          60.1967   93.9436    1.8997 C.2     1  UNL1        0.2267
      2 O          60.1263   94.8554    3.0887 O.2     1  UNL1       -0.2747
      3 N          60.0359   92.4631    2.0793 N.am    1  UNL1       -0.3056
      4 H          60.0822   91.8647    1.2989 H       1  UNL1        0.1494
      5 C          59.8046   91.8944    3.4479 C.3     1  UNL1        0.0743
      6 C          60.9440   91.2836    4.2086 C.3     1  UNL1        0.0369
      7 C          60.7127   90.7149    5.5772 C.3     1  UNL1        0.0741
      8 N          59.3420   90.7570    6.1850 N.3     1  UNL1       -0.2688
      9 C          58.2026   91.3678    5.4243 C.3     1  UNL1        0.0741
     10 C          58.4340   91.9365    4.0557 C.3     1  UNL1        0.0369
     11 C          59.1107   90.1882    7.5537 C.3     1  UNL1        0.0992
     12 C          59.5734   88.7983    7.8763 C.ar    1  UNL1       -0.0031
     13 C          58.9674   87.6229    7.1684 C.ar    1  UNL1       -0.0027
     14 C          59.4302   86.2329    7.4911 C.ar    1  UNL1        0.0029
     15 C          60.4989   86.0186    8.5216 C.ar    1  UNL1        0.0375
     16 C          61.1049   87.1940    9.2294 C.ar    1  UNL1        0.1451
     17 C          60.6421   88.5839    8.9068 C.ar    1  UNL1        0.0346
     18 O          62.1735   86.9797   10.2599 O.3     1  UNL1       -0.4527
     19 C          62.5981   85.5872   10.6216 C.ar    1  UNL1        0.1557
     20 C          62.3377   85.0581   12.0009 C.ar    1  UNL1        0.0384
     21 C          62.7623   83.6657   12.3626 C.ar    1  UNL1        0.0032
     22 C          63.4473   82.8024   11.3451 C.ar    1  UNL1        0.0011
     23 C          63.7077   83.3314    9.9659 C.ar    1  UNL1        0.0145
     24 C          63.2832   84.7238    9.6041 C.ar    1  UNL1        0.0921
     25 CL         63.5436   85.2529    8.2249 Cl      1  UNL1       -0.0791
     26 N          58.6716   94.4053   -1.1403 N.3     1  UNL1       -0.2700
     27 C          59.8571   95.0867   -1.7569 C.3     1  UNL1        0.0732
     28 C          60.9427   95.1529   -0.7239 C.3     1  UNL1        0.0314
     29 C          60.4280   94.5124    0.5310 C.3     1  UNL1        0.1035
     30 C          59.0244   94.0503    0.2736 C.3     1  UNL1        0.0851
     31 C          61.7833   94.8555    1.0746 C.ar    1  UNL1       -0.0133
     32 C          62.1682   96.2908    1.2785 C.ar    1  UNL1       -0.0038
     33 C          63.5235   96.6340    1.8221 C.ar    1  UNL1       -0.0003
     34 C          64.4940   95.5418    2.1617 C.ar    1  UNL1       -0.0000
     35 C          64.1091   94.1065    1.9577 C.ar    1  UNL1       -0.0003
     36 C          62.7538   93.7633    1.4142 C.ar    1  UNL1       -0.0038
     37 C          56.8263   95.4362   -1.3193 C.3     1  UNL1        0.0217
     38 C          57.3629   94.1276   -1.8188 C.3     1  UNL1        0.0775
     39 C          57.8995   92.8189   -2.3183 C.3     1  UNL1        0.0217
     40 C          56.0542   93.8499   -2.4972 C.2     1  UNL1        0.0632
     41 O          55.8745   94.1882   -3.9474 O.co2   1  UNL1       -0.5479
     42 O          54.9250   93.2340   -1.7252 O.co2   1  UNL1       -0.5479
@<TRIPOS>UNITY_ATOM_ATTR
41 1
charge -1
@<TRIPOS>BOND
     1    37    38    1
     2    38    39    1
     3    38    40    1
     4    40    41   ar
     5    40    42   ar
     6    38    26    1
     7    26    27    1
     8    27    28    1
     9    28    29    1
    10    29     1    1
    11     1     2    2
    12     1     3   am
    13     3     5    1
    14     5     6    1
    15     6     7    1
    16     7     8    1
    17     8    11    1
    18    11    12    1
    19    12    13   ar
    20    13    14   ar
    21    14    15   ar
    22    15    16   ar
    23    16    18    1
    24    18    19    1
    25    19    20   ar
    26    20    21   ar
    27    21    22   ar
    28    22    23   ar
    29    23    24   ar
    30    24    25    1
    31    16    17   ar
    32     8     9    1
    33     9    10    1
    34    29    31    1
    35    31    32   ar
    36    32    33   ar
    37    33    34   ar
    38    34    35   ar
    39    35    36   ar
    40    29    30    1
    41    30    26    1
    42    10     5    1
    43    36    31   ar
    44    17    12   ar
    45    24    19   ar
    46     3     4    1
@<TRIPOS>MOLECULE
*****
 42 46 0 0 0
SMALL
GASTEIGER

@<TRIPOS>ATOM
      1 C          61.2316   88.4859    9.8347 C.2     1  UNL1        0.2267
      2 O          60.4128   89.5936   10.4285 O.2     1  UNL1       -0.2747
      3 N          62.5459   88.1106   10.4525 N.am    1  UNL1       -0.3056
      4 H          63.0833   87.3836   10.0628 H       1  UNL1        0.1494
      5 C          63.0414   88.8430   11.6642 C.3     1  UNL1        0.0743
      6 C          63.5068   88.0758   12.8661 C.3     1  UNL1        0.0369
      7 C          64.0023   88.8082   14.0777 C.3     1  UNL1        0.0741
      8 N          64.0325   90.3079   14.0874 N.3     1  UNL1       -0.2688
      9 C          63.5671   91.0751   12.8854 C.3     1  UNL1        0.0741
     10 C          63.0716   90.3427   11.6738 C.3     1  UNL1        0.0369
     11 C          64.5280   91.0403   15.2990 C.3     1  UNL1        0.0992
     12 C          65.5879   92.0923   15.1582 C.ar    1  UNL1       -0.0031
     13 C          66.5867   92.3026   16.2573 C.ar    1  UNL1       -0.0027
     14 C          67.6466   93.3546   16.1164 C.ar    1  UNL1        0.0029
     15 C          67.7077   94.1964   14.8764 C.ar    1  UNL1        0.0375
     16 C          66.7089   93.9861   13.7772 C.ar    1  UNL1        0.1451
     17 C          65.6490   92.9341   13.9181 C.ar    1  UNL1        0.0346
     18 O          66.7699   94.8278   12.5372 O.3     1  UNL1       -0.4527
     19 C          67.2066   94.2186   11.2379 C.ar    1  UNL1        0.1557
     20 C          67.6013   92.7725   11.1828 C.ar    1  UNL1        0.0384
     21 C          68.0379   92.1632    9.8835 C.ar    1  UNL1        0.0032
     22 C          68.0798   93.0000    8.6394 C.ar    1  UNL1        0.0011
     23 C          67.6851   94.4461    8.6945 C.ar    1  UNL1        0.0145
     24 C          67.2484   95.0554    9.9937 C.ar    1  UNL1        0.0921
     25 CL         66.8537   96.5014   10.0488 Cl      1  UNL1       -0.0791
     26 N          59.4784   88.9385    6.9188 N.3     1  UNL1       -0.2700
     27 C          59.6012   87.5057    6.4920 C.3     1  UNL1        0.0732
     28 C          60.3785   86.7734    7.5453 C.3     1  UNL1        0.0314
     29 C          60.7361   87.7535    8.6230 C.3     1  UNL1        0.1035
     30 C          60.1797   89.0916    8.2358 C.3     1  UNL1        0.0851
     31 C          61.3960   86.5686    9.2635 C.ar    1  UNL1       -0.0133
     32 C          62.4173   85.7765    8.5023 C.ar    1  UNL1       -0.0038
     33 C          63.0774   84.5915    9.1428 C.ar    1  UNL1       -0.0003
     34 C          62.7160   84.1986   10.5446 C.ar    1  UNL1       -0.0000
     35 C          61.6947   84.9906   11.3059 C.ar    1  UNL1       -0.0003
     36 C          61.0346   86.1756   10.6653 C.ar    1  UNL1       -0.0038
     37 C          60.0993   90.5346    5.6671 C.3     1  UNL1        0.0217
     38 C          58.7772   90.0270    6.1615 C.3     1  UNL1        0.0775
     39 C          57.4550   89.5193    6.6558 C.3     1  UNL1        0.0217
     40 C          58.0761   91.1155    5.4041 C.2     1  UNL1        0.0632
     41 O          58.8585   92.2722    4.8567 O.co2   1  UNL1       -0.5479
     42 O          56.5923   91.0473    5.1942 O.co2   1  UNL1       -0.5479
@<TRIPOS>UNITY_ATOM_ATTR
41 1
charge -1
@<TRIPOS>BOND
     1    37    38    1
     2    38    39    1
     3    38    40    1
     4    40    41   ar
     5    40    42   ar
     6    38    26    1
     7    26    27    1
     8    27    28    1
     9    28    29    1
    10    29     1    1
    11     1     2    2
    12     1     3   am
    13     3     5    1
    14     5     6    1
    15     6     7    1
    16     7     8    1
    17     8    11    1
    18    11    12    1
    19    12    13   ar
    20    13    14   ar
    21    14    15   ar
    22    15    16   ar
    23    16    18    1
    24    18    19    1
    25    19    20   ar
    26    20    21   ar
    27    21    22   ar
    28    22    23   ar
    29    23    24   ar
    30    24    25    1
    31    16    17   ar
    32     8     9    1
    33     9    10    1
    34    29    31    1
    35    31    32   ar
    36    32    33   ar
    37    33    34   ar
    38    34    35   ar
    39    35    36   ar
    40    29    30    1
    41    30    26    1
    42    10     5    1
    43    36    31   ar
    44    17    12   ar
    45    24    19   ar
    46     3     4    1
@<TRIPOS>MOLECULE
*****
 42 46 0 0 0
SMALL
GASTEIGER

@<TRIPOS>ATOM
      1 C          62.5213   87.5011   11.1885 C.2     1  UNL1        0.2267
      2 O          63.3456   88.4811   10.4075 O.2     1  UNL1       -0.2747
      3 N          61.1009   87.2300   10.7897 N.am    1  UNL1       -0.3056
      4 H          60.5599   86.5868   11.3023 H       1  UNL1        0.1494
      5 C          60.5048   87.9391    9.6098 C.3     1  UNL1        0.0743
      6 C          60.0216   87.1525    8.4276 C.3     1  UNL1        0.0369
      7 C          59.4255   87.8616    7.2479 C.3     1  UNL1        0.0741
      8 N          59.3126   89.3573    7.2504 N.3     1  UNL1       -0.2688
      9 C          59.7958   90.1440    8.4326 C.3     1  UNL1        0.0741
     10 C          60.3919   89.4349    9.6123 C.3     1  UNL1        0.0369
     11 C          58.7165   90.0664    6.0705 C.3     1  UNL1        0.0992
     12 C          59.6022   90.8161    5.1201 C.ar    1  UNL1       -0.0031
     13 C          61.0634   90.4871    5.0386 C.ar    1  UNL1       -0.0027
     14 C          61.9491   91.2369    4.0880 C.ar    1  UNL1        0.0029
     15 C          61.3736   92.3155    3.2190 C.ar    1  UNL1        0.0375
     16 C          59.9123   92.6445    3.3005 C.ar    1  UNL1        0.1451
     17 C          59.0267   91.8948    4.2510 C.ar    1  UNL1        0.0346
     18 O          59.3368   93.7231    2.4314 O.3     1  UNL1       -0.4527
     19 C          59.6834   93.7760    0.9729 C.ar    1  UNL1        0.1557
     20 C          58.9903   92.8647    0.0038 C.ar    1  UNL1        0.0384
     21 C          59.3369   92.9176   -1.4546 C.ar    1  UNL1        0.0032
     22 C          60.3765   93.8817   -1.9439 C.ar    1  UNL1        0.0011
     23 C          61.0696   94.7930   -0.9748 C.ar    1  UNL1        0.0145
     24 C          60.7231   94.7401    0.4836 C.ar    1  UNL1        0.0921
     25 CL         61.4162   95.6514    1.4527 Cl      1  UNL1       -0.0791
     26 N          63.1865   84.3665   12.4185 N.3     1  UNL1       -0.2700
     27 C          63.8045   84.8742   13.6875 C.3     1  UNL1        0.0732
     28 C          63.7617   86.3732   13.6565 C.3     1  UNL1        0.0314
     29 C          63.1174   86.7920   12.3683 C.3     1  UNL1        0.1035
     30 C          62.7619   85.5517   11.6032 C.3     1  UNL1        0.0851
     31 C          63.3482   88.1805   12.8867 C.ar    1  UNL1       -0.0133
     32 C          62.6735   89.3481   12.2299 C.ar    1  UNL1       -0.0038
     33 C          62.9043   90.7367   12.7483 C.ar    1  UNL1       -0.0003
     34 C          63.8099   90.9576   13.9235 C.ar    1  UNL1       -0.0000
     35 C          64.4847   89.7900   14.5803 C.ar    1  UNL1       -0.0003
     36 C          64.2539   88.4014   14.0619 C.ar    1  UNL1       -0.0038
     37 C          63.6412   83.2136   10.6969 C.3     1  UNL1        0.0217
     38 C          63.0221   82.9264   12.0326 C.3     1  UNL1        0.0775
     39 C          62.4030   82.6391   13.3684 C.3     1  UNL1        0.0217
     40 C          62.8577   81.4862   11.6467 C.2     1  UNL1        0.0632
     41 O          63.1456   81.0488   10.2411 O.co2   1  UNL1       -0.5479
     42 O          62.4053   80.4834   12.6664 O.co2   1  UNL1       -0.5479
@<TRIPOS>UNITY_ATOM_ATTR
41 1
charge -1
@<TRIPOS>BOND
     1    37    38    1
     2    38    39    1
     3    38    40    1
     4    40    41   ar
     5    40    42   ar
     6    38    26    1
     7    26    27    1
     8    27    28    1
     9    28    29    1
    10    29     1    1
    11     1     2    2
    12     1     3   am
    13     3     5    1
    14     5     6    1
    15     6     7    1
    16     7     8    1
    17     8    11    1
    18    11    12    1
    19    12    13   ar
    20    13    14   ar
    21    14    15   ar
    22    15    16   ar
    23    16    18    1
    24    18    19    1
    25    19    20   ar
    26    20    21   ar
    27    21    22   ar
    28    22    23   ar
    29    23    24   ar
    30    24    25    1
    31    16    17   ar
    32     8     9    1
    33     9    10    1
    34    29    31    1
    35    31    32   ar
    36    32    33   ar
    37    33    34   ar
    38    34    35   ar
    39    35    36   ar
    40    29    30    1
    41    30    26    1
    42    10     5    1
    43    36    31   ar
    44    17    12   ar
    45    24    19   ar
    46     3     4    1
@<TRIPOS>MOLECULE
*****
 42 46 0 0 0
SMALL
GASTEIGER

@<TRIPOS>ATOM
      1 C          57.6034   93.1312   -4.4690 C.2     1  UNL1        0.2267
      2 O          59.0916   92.9439   -4.4543 O.2     1  UNL1       -0.2747
      3 N          56.8792   93.4830   -3.2034 N.am    1  UNL1       -0.3056
      4 H          55.9025   93.6059   -3.2130 H       1  UNL1        0.1494
      5 C          57.6433   93.6475   -1.9230 C.3     1  UNL1        0.0743
      6 C          58.1706   92.4414   -1.2040 C.3     1  UNL1        0.0369
      7 C          58.9346   92.6060    0.0763 C.3     1  UNL1        0.0741
      8 N          59.1713   93.9767    0.6375 N.3     1  UNL1       -0.2688
      9 C          58.6440   95.1829   -0.0815 C.3     1  UNL1        0.0741
     10 C          57.8800   95.0183   -1.3618 C.3     1  UNL1        0.0369
     11 C          59.9353   94.1413    1.9179 C.3     1  UNL1        0.0992
     12 C          61.2605   93.4608    2.0932 C.ar    1  UNL1       -0.0031
     13 C          61.3973   92.3235    3.0617 C.ar    1  UNL1       -0.0027
     14 C          62.7226   91.6431    3.2370 C.ar    1  UNL1        0.0029
     15 C          63.9110   92.0999    2.4439 C.ar    1  UNL1        0.0375
     16 C          63.7742   93.2372    1.4755 C.ar    1  UNL1        0.1451
     17 C          62.4490   93.9176    1.3001 C.ar    1  UNL1        0.0346
     18 O          64.9626   93.6940    0.6824 O.3     1  UNL1       -0.4527
     19 C          64.7679   94.5437   -0.5384 C.ar    1  UNL1        0.1557
     20 C          64.2440   93.9305   -1.8031 C.ar    1  UNL1        0.0384
     21 C          64.0494   94.7801   -3.0239 C.ar    1  UNL1        0.0032
     22 C          64.3786   96.2429   -2.9799 C.ar    1  UNL1        0.0011
     23 C          64.9025   96.8560   -1.7151 C.ar    1  UNL1        0.0145
     24 C          65.0972   96.0064   -0.4944 C.ar    1  UNL1        0.0921
     25 CL         65.6211   96.6195    0.7704 Cl      1  UNL1       -0.0791
     26 N          55.2407   91.1557   -5.9843 N.3     1  UNL1       -0.2700
     27 C          55.2495   91.9354   -7.2657 C.3     1  UNL1        0.0732
     28 C          56.2375   93.0546   -7.1205 C.3     1  UNL1        0.0314
     29 C          56.8393   92.9666   -5.7493 C.3     1  UNL1        0.1035
     30 C          56.2233   91.7930   -5.0472 C.3     1  UNL1        0.0851
     31 C          57.6152   94.1746   -6.1838 C.ar    1  UNL1       -0.0133
     32 C          57.2312   95.5339   -5.6791 C.ar    1  UNL1       -0.0038
     33 C          58.0070   96.7421   -6.1136 C.ar    1  UNL1       -0.0003
     34 C          59.1668   96.5908   -7.0527 C.ar    1  UNL1       -0.0000
     35 C          59.5508   95.2314   -7.5574 C.ar    1  UNL1       -0.0003
     36 C          58.7750   94.0233   -7.1229 C.ar    1  UNL1       -0.0038
     37 C          54.9340   89.9150   -4.2913 C.3     1  UNL1        0.0217
     38 C          54.3974   89.9503   -5.6916 C.3     1  UNL1        0.0775
     39 C          53.8608   89.9855   -7.0919 C.3     1  UNL1        0.0217
     40 C          53.5541   88.7448   -5.3987 C.2     1  UNL1        0.0632
     41 O          52.0584   88.8460   -5.4478 O.co2   1  UNL1       -0.5479
     42 O          54.2066   87.4381   -5.0568 O.co2   1  UNL1       -0.5479
@<TRIPOS>UNITY_ATOM_ATTR
41 1
charge -1
@<TRIPOS>BOND
     1    37    38    1
     2    38    39    1
     3    38    40    1
     4    40    41   ar
     5    40    42   ar
     6    38    26    1
     7    26    27    1
     8    27    28    1
     9    28    29    1
    10    29     1    1
    11     1     2    2
    12     1     3   am
    13     3     5    1
    14     5     6    1
    15     6     7    1
    16     7     8    1
    17     8    11    1
    18    11    12    1
    19    12    13   ar
    20    13    14   ar
    21    14    15   ar
    22    15    16   ar
    23    16    18    1
    24    18    19    1
    25    19    20   ar
    26    20    21   ar
    27    21    22   ar
    28    22    23   ar
    29    23    24   ar
    30    24    25    1
    31    16    17   ar
    32     8     9    1
    33     9    10    1
    34    29    31    1
    35    31    32   ar
    36    32    33   ar
    37    33    34   ar
    38    34    35   ar
    39    35    36   ar
    40    29    30    1
    41    30    26    1
    42    10     5    1
    43    36    31   ar
    44    17    12   ar
    45    24    19   ar
    46     3     4    1
@<TRIPOS>MOLECULE
*****
 42 46 0 0 0
SMALL
GASTEIGER

@<TRIPOS>ATOM
      1 C          60.3169   94.0165    1.7284 C.2     1  UNL1        0.2267
      2 O          60.0481   94.9368    2.8820 O.2     1  UNL1       -0.2747
      3 N          60.2622   92.5306    1.9258 N.am    1  UNL1       -0.3056
      4 H          60.4387   91.9265    1.1687 H       1  UNL1        0.1494
      5 C          59.9388   91.9649    3.2770 C.3     1  UNL1        0.0743
      6 C          58.5322   92.0177    3.7951 C.3     1  UNL1        0.0369
      7 C          58.2089   91.4521    5.1462 C.3     1  UNL1        0.0741
      8 N          59.2922   90.8336    5.9791 N.3     1  UNL1       -0.2688
      9 C          60.6988   90.7807    5.4610 C.3     1  UNL1        0.0741
     10 C          61.0222   91.3463    4.1100 C.3     1  UNL1        0.0369
     11 C          58.9688   90.2679    7.3303 C.3     1  UNL1        0.0992
     12 C          59.5403   88.9448    7.7458 C.ar    1  UNL1       -0.0031
     13 C          58.9173   87.6714    7.2553 C.ar    1  UNL1       -0.0027
     14 C          59.4889   86.3482    7.6709 C.ar    1  UNL1        0.0029
     15 C          60.6833   86.2985    8.5768 C.ar    1  UNL1        0.0375
     16 C          61.3063   87.5718    9.0672 C.ar    1  UNL1        0.1451
     17 C          60.7348   88.8949    8.6517 C.ar    1  UNL1        0.0346
     18 O          62.5008   87.5220    9.9731 O.3     1  UNL1       -0.4527
     19 C          62.8186   88.6893   10.8601 C.ar    1  UNL1        0.1557
     20 C          62.7283   90.0865   10.3220 C.ar    1  UNL1        0.0384
     21 C          63.0461   91.2538   11.2088 C.ar    1  UNL1        0.0032
     22 C          63.4542   91.0237   12.6337 C.ar    1  UNL1        0.0011
     23 C          63.5446   89.6265   13.1718 C.ar    1  UNL1        0.0145
     24 C          63.2267   88.4593   12.2850 C.ar    1  UNL1        0.0921
     25 CL         63.3171   87.0620   12.8231 Cl      1  UNL1       -0.0791
     26 N          58.9762   94.5334   -1.3887 N.3     1  UNL1       -0.2700
     27 C          60.2139   95.1805   -1.9359 C.3     1  UNL1        0.0732
     28 C          61.2424   95.2106   -0.8445 C.3     1  UNL1        0.0314
     29 C          60.6403   94.5821    0.3772 C.3     1  UNL1        0.1035
     30 C          59.2397   94.1637    0.0408 C.3     1  UNL1        0.0851
     31 C          61.9732   94.8824    0.9961 C.ar    1  UNL1       -0.0133
     32 C          62.3418   96.2966    1.3339 C.ar    1  UNL1       -0.0038
     33 C          63.6748   96.5968    1.9529 C.ar    1  UNL1       -0.0003
     34 C          64.6392   95.4829    2.2339 C.ar    1  UNL1       -0.0000
     35 C          64.2707   94.0686    1.8961 C.ar    1  UNL1       -0.0003
     36 C          62.9376   93.7684    1.2772 C.ar    1  UNL1       -0.0038
     37 C          58.4027   93.3148   -3.0276 C.3     1  UNL1        0.0217
     38 C          57.6991   94.2976   -2.1394 C.3     1  UNL1        0.0775
     39 C          56.9954   95.2805   -1.2512 C.3     1  UNL1        0.0217
     40 C          56.4221   94.0617   -2.8902 C.2     1  UNL1        0.0632
     41 O          55.2221   94.9192   -2.6170 O.co2   1  UNL1       -0.5479
     42 O          56.3451   92.9682   -3.9142 O.co2   1  UNL1       -0.5479
@<TRIPOS>UNITY_ATOM_ATTR
41 1
charge -1
@<TRIPOS>BOND
     1    37    38    1
     2    38    39    1
     3    38    40    1
     4    40    41   ar
     5    40    42   ar
     6    38    26    1
     7    26    27    1
     8    27    28    1
     9    28    29    1
    10    29     1    1
    11     1     2    2
    12     1     3   am
    13     3     5    1
    14     5     6    1
    15     6     7    1
    16     7     8    1
    17     8    11    1
    18    11    12    1
    19    12    13   ar
    20    13    14   ar
    21    14    15   ar
    22    15    16   ar
    23    16    18    1
    24    18    19    1
    25    19    20   ar
    26    20    21   ar
    27    21    22   ar
    28    22    23   ar
    29    23    24   ar
    30    24    25    1
    31    16    17   ar
    32     8     9    1
    33     9    10    1
    34    29    31    1
    35    31    32   ar
    36    32    33   ar
    37    33    34   ar
    38    34    35   ar
    39    35    36   ar
    40    29    30    1
    41    30    26    1
    42    10     5    1
    43    36    31   ar
    44    17    12   ar
    45    24    19   ar
    46     3     4    1
