@<TRIPOS>MOLECULE
*****
 40 44 0 0 0
SMALL
GASTEIGER

@<TRIPOS>ATOM
      1 C          61.7683   88.3746   10.1644 C.3     1  UNL1        0.0312
      2 C          62.4060   87.4974   11.2006 C.2     1  UNL1        0.0121
      3 C          62.3232   86.0050   11.0738 C.2     1  UNL1       -0.0081
      4 C          62.9609   85.1278   12.1099 C.2     1  UNL1       -0.0194
      5 C          63.6815   85.7428   13.2729 C.2     1  UNL1        0.0425
      6 C          63.7644   87.2351   13.3997 C.2     1  UNL1        0.2231
      7 N          64.4027   88.1211   14.4280 N.2     1  UNL1       -0.0378
      8 C          64.1594   89.5460   14.0274 C.2     1  UNL1        0.3605
      9 N          63.3708   89.5406   12.7515 N.2     1  UNL1       -0.0547
     10 C          63.1266   88.1124   12.3635 C.3     1  UNL1        0.2975
     11 C          64.6233   90.7627   14.7720 C.3     1  UNL1        0.2246
     12 C          65.6175   91.6932   14.1431 C.2     1  UNL1        0.0436
     13 C          66.0814   92.9099   14.8878 C.2     1  UNL1        0.0288
     14 C          65.5510   93.1962   16.2613 C.2     1  UNL1        0.0896
     15 N          64.5567   92.2657   16.8903 N.am    1  UNL1       -0.1770
     16 C          64.0929   91.0490   16.1456 C.2     1  UNL1        0.2627
     17 O          63.0986   90.1185   16.7746 O.2     1  UNL1       -0.2719
     18 N          66.1480   91.4070   12.7695 N.pl3   1  UNL1       -0.3329
     19 H          65.6665   90.7872   12.1752 H       1  UNL1        0.1466
     20 C          67.4120   92.0653   12.3014 C.3     1  UNL1        0.1211
     21 C          67.5016   92.6105   10.9069 C.3     1  UNL1        0.1522
     22 O          68.0025   91.7407    9.7923 O.3     1  UNL1       -0.3783
     23 H          68.2237   90.8631   10.1414 H       1  UNL1        0.2109
     24 C          67.0903   94.0256   10.6271 C.ar    1  UNL1        0.0067
     25 C          66.2142   94.7583   11.5995 C.ar    1  UNL1       -0.0018
     26 C          65.8029   96.1734   11.3197 C.ar    1  UNL1        0.0006
     27 C          66.2677   96.8559   10.0674 C.ar    1  UNL1        0.0114
     28 C          67.1438   96.1232    9.0950 C.ar    1  UNL1        0.0574
     29 CL         67.6085   96.8056    7.8427 Cl      1  UNL1       -0.0823
     30 C          67.5551   94.7081    9.3748 C.ar    1  UNL1        0.0095
     31 C          62.8780   83.6354   11.9831 C.3     1  UNL1        0.0252
     32 C          63.2709   82.9689   10.6980 C.3     1  UNL1        0.0217
     33 C          63.1880   81.4766   10.5712 C.3     1  UNL1        0.0724
     34 N          62.7123   80.6507   11.7296 N.3     1  UNL1       -0.2726
     35 C          62.3195   81.3172   13.0147 C.3     1  UNL1        0.0724
     36 C          62.4023   82.8095   13.1414 C.3     1  UNL1        0.0217
     37 C          62.6294   79.1584   11.6029 C.3     1  UNL1        0.0750
     38 C          62.8781   78.5033   10.2765 C.3     1  UNL1        0.0554
     39 C          63.3075   77.0673   10.2180 C.3     1  UNL1        0.1947
     40 F          64.5524   76.6866    9.4727 F       1  UNL1       -0.2343
@<TRIPOS>BOND
     1     1     2    1
     2     2     3    2
     3     3     4    1
     4     4    31    1
     5    31    32    1
     6    32    33    1
     7    33    34    1
     8    34    37    1
     9    37    38    1
    10    38    39    1
    11    39    40    1
    12    34    35    1
    13    35    36    1
    14     4     5    2
    15     5     6    1
    16     6     7    2
    17     7     8    1
    18     8    11    1
    19    11    12    1
    20    12    18    1
    21    18    20    1
    22    20    21    1
    23    21    22    1
    24    21    24    1
    25    24    25   ar
    26    25    26   ar
    27    26    27   ar
    28    27    28   ar
    29    28    29    1
    30    28    30   ar
    31    12    13    2
    32    13    14    1
    33    14    15    2
    34    15    16    1
    35    16    17    2
    36     8     9    2
    37     9    10    1
    38    10     2    1
    39    36    31    1
    40    10     6    1
    41    16    11    1
    42    30    24   ar
    43    18    19    1
    44    22    23    1
@<TRIPOS>MOLECULE
*****
 40 44 0 0 0
SMALL
GASTEIGER

@<TRIPOS>ATOM
      1 C          63.0313   88.3871   17.7936 C.3     1  UNL1        0.0312
      2 C          63.3696   87.8047   16.4533 C.2     1  UNL1        0.0121
      3 C          63.1515   86.3436   16.1938 C.2     1  UNL1       -0.0081
      4 C          63.4898   85.7612   14.8536 C.2     1  UNL1       -0.0194
      5 C          64.0463   86.6400   13.7727 C.2     1  UNL1        0.0425
      6 C          64.2644   88.1012   14.0323 C.2     1  UNL1        0.2231
      7 N          64.7943   89.2060   13.1671 N.2     1  UNL1       -0.0378
      8 C          64.7834   90.4713   13.9728 C.2     1  UNL1        0.3605
      9 N          64.2469   90.1484   15.3358 N.2     1  UNL1       -0.0547
     10 C          63.9261   88.6835   15.3726 C.3     1  UNL1        0.2975
     11 C          65.2306   91.8223   13.4986 C.3     1  UNL1        0.2246
     12 C          65.0059   92.2288   12.0724 C.2     1  UNL1        0.0436
     13 C          65.4532   93.5799   11.5983 C.2     1  UNL1        0.0288
     14 C          66.1251   94.5243   12.5504 C.2     1  UNL1        0.0896
     15 N          66.3498   94.1178   13.9767 N.am    1  UNL1       -0.1770
     16 C          65.9025   92.7667   14.4507 C.2     1  UNL1        0.2627
     17 O          66.1272   92.3602   15.8770 O.2     1  UNL1       -0.2719
     18 N          64.3341   91.2845   11.1202 N.pl3   1  UNL1       -0.3329
     19 H          64.8735   90.6587   10.5848 H       1  UNL1        0.1466
     20 C          62.8403   91.2934   10.9837 C.3     1  UNL1        0.1211
     21 C          62.0346   90.1308   11.4829 C.3     1  UNL1        0.1522
     22 O          61.6493   90.0517   12.9304 O.3     1  UNL1       -0.3783
     23 H          61.9978   90.8253   13.4005 H       1  UNL1        0.2109
     24 C          61.6143   89.0473   10.5346 C.ar    1  UNL1        0.0067
     25 C          62.1939   87.6700   10.6650 C.ar    1  UNL1       -0.0018
     26 C          61.7735   86.5865    9.7167 C.ar    1  UNL1        0.0006
     27 C          60.7736   86.8803    8.6379 C.ar    1  UNL1        0.0114
     28 C          60.1940   88.2576    8.5075 C.ar    1  UNL1        0.0574
     29 CL         59.1941   88.5514    7.4287 Cl      1  UNL1       -0.0823
     30 C          60.6144   89.3411    9.4558 C.ar    1  UNL1        0.0095
     31 C          63.2716   84.2999   14.5941 C.3     1  UNL1        0.0252
     32 C          61.9197   83.6914   14.8218 C.3     1  UNL1        0.0217
     33 C          61.7015   82.2303   14.5623 C.3     1  UNL1        0.0724
     34 N          62.8353   81.3776   14.0750 N.3     1  UNL1       -0.2726
     35 C          64.1873   81.9861   13.8473 C.3     1  UNL1        0.0724
     36 C          64.4055   83.4473   14.1068 C.3     1  UNL1        0.0217
     37 C          62.6173   79.9164   13.8155 C.3     1  UNL1        0.0750
     38 C          62.4779   79.4173   12.4078 C.3     1  UNL1        0.0554
     39 C          62.8890   80.2893   11.2587 C.3     1  UNL1        0.1947
     40 F          62.9333   79.7269    9.8688 F       1  UNL1       -0.2343
@<TRIPOS>BOND
     1     1     2    1
     2     2     3    2
     3     3     4    1
     4     4    31    1
     5    31    32    1
     6    32    33    1
     7    33    34    1
     8    34    37    1
     9    37    38    1
    10    38    39    1
    11    39    40    1
    12    34    35    1
    13    35    36    1
    14     4     5    2
    15     5     6    1
    16     6     7    2
    17     7     8    1
    18     8    11    1
    19    11    12    1
    20    12    18    1
    21    18    20    1
    22    20    21    1
    23    21    22    1
    24    21    24    1
    25    24    25   ar
    26    25    26   ar
    27    26    27   ar
    28    27    28   ar
    29    28    29    1
    30    28    30   ar
    31    12    13    2
    32    13    14    1
    33    14    15    2
    34    15    16    1
    35    16    17    2
    36     8     9    2
    37     9    10    1
    38    10     2    1
    39    36    31    1
    40    10     6    1
    41    16    11    1
    42    30    24   ar
    43    18    19    1
    44    22    23    1
@<TRIPOS>MOLECULE
*****
 40 44 0 0 0
SMALL
GASTEIGER

@<TRIPOS>ATOM
      1 C          62.3299   88.8337   10.6052 C.3     1  UNL1        0.0312
      2 C          62.8430   88.0101   11.7491 C.2     1  UNL1        0.0121
      3 C          62.5309   86.5445   11.8175 C.2     1  UNL1       -0.0081
      4 C          63.0440   85.7210   12.9612 C.2     1  UNL1       -0.0194
      5 C          63.8693   86.3629   14.0368 C.2     1  UNL1        0.0425
      6 C          64.1815   87.8285   13.9685 C.2     1  UNL1        0.2231
      7 N          64.9646   88.7312   14.8750 N.2     1  UNL1       -0.0378
      8 C          64.9355   90.1127   14.2914 C.2     1  UNL1        0.3605
      9 N          64.1344   90.0638   13.0242 N.2     1  UNL1       -0.0547
     10 C          63.6683   88.6520   12.8246 C.3     1  UNL1        0.2975
     11 C          65.5922   91.3295   14.8729 C.3     1  UNL1        0.2246
     12 C          66.8509   91.8678   14.2597 C.2     1  UNL1        0.0436
     13 C          67.5075   93.0846   14.8412 C.2     1  UNL1        0.0288
     14 C          66.9056   93.7631   16.0359 C.2     1  UNL1        0.0896
     15 N          65.6470   93.2248   16.6491 N.am    1  UNL1       -0.1770
     16 C          64.9903   92.0079   16.0676 C.2     1  UNL1        0.2627
     17 O          63.7317   91.4696   16.6808 O.2     1  UNL1       -0.2719
     18 N          67.4528   91.1894   13.0650 N.pl3   1  UNL1       -0.3329
     19 H          67.7603   90.2565   13.1316 H       1  UNL1        0.1466
     20 C          67.5864   91.9322   11.7687 C.3     1  UNL1        0.1211
     21 C          66.3818   92.5693   11.1418 C.3     1  UNL1        0.1522
     22 O          65.1194   91.7778   10.9687 O.3     1  UNL1       -0.3783
     23 H          65.2510   90.8801   11.3118 H       1  UNL1        0.2109
     24 C          66.4395   93.9978   10.6881 C.ar    1  UNL1        0.0067
     25 C          66.1511   95.1051   11.6579 C.ar    1  UNL1       -0.0018
     26 C          66.2088   96.5336   11.2042 C.ar    1  UNL1        0.0006
     27 C          66.5550   96.8549    9.7804 C.ar    1  UNL1        0.0114
     28 C          66.8434   95.7477    8.8106 C.ar    1  UNL1        0.0574
     29 CL         67.1896   96.0690    7.3869 Cl      1  UNL1       -0.0823
     30 C          66.7857   94.3191    9.2643 C.ar    1  UNL1        0.0095
     31 C          62.7318   84.2553   13.0296 C.3     1  UNL1        0.0252
     32 C          62.3448   83.6311   14.3375 C.3     1  UNL1        0.0217
     33 C          62.0326   82.1656   14.4059 C.3     1  UNL1        0.0724
     34 N          62.1074   81.3242   13.1663 N.3     1  UNL1       -0.2726
     35 C          62.4944   81.9484   11.8584 C.3     1  UNL1        0.0724
     36 C          62.8066   83.4140   11.7900 C.3     1  UNL1        0.0217
     37 C          61.7952   79.8587   13.2346 C.3     1  UNL1        0.0750
     38 C          60.7936   79.3507   14.2290 C.3     1  UNL1        0.0554
     39 C          59.3973   79.8985   14.2338 C.3     1  UNL1        0.1947
     40 F          58.3030   79.1566   14.9425 F       1  UNL1       -0.2343
@<TRIPOS>BOND
     1     1     2    1
     2     2     3    2
     3     3     4    1
     4     4    31    1
     5    31    32    1
     6    32    33    1
     7    33    34    1
     8    34    37    1
     9    37    38    1
    10    38    39    1
    11    39    40    1
    12    34    35    1
    13    35    36    1
    14     4     5    2
    15     5     6    1
    16     6     7    2
    17     7     8    1
    18     8    11    1
    19    11    12    1
    20    12    18    1
    21    18    20    1
    22    20    21    1
    23    21    22    1
    24    21    24    1
    25    24    25   ar
    26    25    26   ar
    27    26    27   ar
    28    27    28   ar
    29    28    29    1
    30    28    30   ar
    31    12    13    2
    32    13    14    1
    33    14    15    2
    34    15    16    1
    35    16    17    2
    36     8     9    2
    37     9    10    1
    38    10     2    1
    39    36    31    1
    40    10     6    1
    41    16    11    1
    42    30    24   ar
    43    18    19    1
    44    22    23    1
@<TRIPOS>MOLECULE
*****
 40 44 0 0 0
SMALL
GASTEIGER

@<TRIPOS>ATOM
      1 C          59.4146   88.9445   12.2340 C.3     1  UNL1        0.0312
      2 C          59.9906   88.5638   10.9023 C.2     1  UNL1        0.0121
      3 C          59.6288   89.3491    9.6766 C.2     1  UNL1       -0.0081
      4 C          60.2048   88.9685    8.3450 C.2     1  UNL1       -0.0194
      5 C          61.1425   87.8025    8.2390 C.2     1  UNL1        0.0425
      6 C          61.5043   87.0172    9.4647 C.2     1  UNL1        0.2231
      7 N          62.3958   85.8282    9.6680 N.2     1  UNL1       -0.0378
      8 C          62.3708   85.4740   11.1253 C.2     1  UNL1        0.3605
      9 N          61.4638   86.4441   11.8227 N.2     1  UNL1       -0.0547
     10 C          60.9283   87.3979   10.7964 C.3     1  UNL1        0.2975
     11 C          63.1211   84.3474   11.7719 C.3     1  UNL1        0.2246
     12 C          63.5393   84.4518   13.2086 C.2     1  UNL1        0.0436
     13 C          64.2895   83.3252   13.8550 C.2     1  UNL1        0.0288
     14 C          64.6216   82.0942   13.0648 C.2     1  UNL1        0.0896
     15 N          64.2034   81.9898   11.6281 N.am    1  UNL1       -0.1770
     16 C          63.4531   83.1164   10.9817 C.2     1  UNL1        0.2627
     17 O          63.0349   83.0120    9.5449 O.2     1  UNL1       -0.2719
     18 N          63.2073   85.6827   13.9989 N.pl3   1  UNL1       -0.3329
     19 H          62.2790   85.8516   14.2801 H       1  UNL1        0.1466
     20 C          64.2895   86.6563   14.3607 C.3     1  UNL1        0.1211
     21 C          63.9312   88.0115   14.8947 C.3     1  UNL1        0.1522
     22 O          63.3793   88.1488   16.2827 O.3     1  UNL1       -0.3783
     23 H          63.3182   87.2727   16.6945 H       1  UNL1        0.2109
     24 C          64.1250   89.2293   14.0407 C.ar    1  UNL1        0.0067
     25 C          65.0481   90.3223   14.4914 C.ar    1  UNL1       -0.0018
     26 C          65.2418   91.5402   13.6374 C.ar    1  UNL1        0.0006
     27 C          64.5124   91.6651   12.3327 C.ar    1  UNL1        0.0114
     28 C          63.5892   90.5721   11.8820 C.ar    1  UNL1        0.0574
     29 CL         62.8598   90.6970   10.5773 Cl      1  UNL1       -0.0823
     30 C          63.3955   89.3542   12.7360 C.ar    1  UNL1        0.0095
     31 C          59.8430   89.7539    7.1192 C.3     1  UNL1        0.0252
     32 C          58.4029   89.9250    6.7360 C.3     1  UNL1        0.0217
     33 C          58.0411   90.7103    5.5103 C.3     1  UNL1        0.0724
     34 N          59.1195   91.3245    4.6677 N.3     1  UNL1       -0.2726
     35 C          60.5596   91.1534    5.0509 C.3     1  UNL1        0.0724
     36 C          60.9213   90.3681    6.2766 C.3     1  UNL1        0.0217
     37 C          58.7578   92.1098    3.4420 C.3     1  UNL1        0.0750
     38 C          59.8217   92.8428    2.6799 C.3     1  UNL1        0.0554
     39 C          59.6451   93.1107    1.2146 C.3     1  UNL1        0.1947
     40 F          59.6964   91.9773    0.2334 F       1  UNL1       -0.2343
@<TRIPOS>BOND
     1     1     2    1
     2     2     3    2
     3     3     4    1
     4     4    31    1
     5    31    32    1
     6    32    33    1
     7    33    34    1
     8    34    37    1
     9    37    38    1
    10    38    39    1
    11    39    40    1
    12    34    35    1
    13    35    36    1
    14     4     5    2
    15     5     6    1
    16     6     7    2
    17     7     8    1
    18     8    11    1
    19    11    12    1
    20    12    18    1
    21    18    20    1
    22    20    21    1
    23    21    22    1
    24    21    24    1
    25    24    25   ar
    26    25    26   ar
    27    26    27   ar
    28    27    28   ar
    29    28    29    1
    30    28    30   ar
    31    12    13    2
    32    13    14    1
    33    14    15    2
    34    15    16    1
    35    16    17    2
    36     8     9    2
    37     9    10    1
    38    10     2    1
    39    36    31    1
    40    10     6    1
    41    16    11    1
    42    30    24   ar
    43    18    19    1
    44    22    23    1
@<TRIPOS>MOLECULE
*****
 40 44 0 0 0
SMALL
GASTEIGER

@<TRIPOS>ATOM
      1 C          63.7683   84.5748   13.9137 C.3     1  UNL1        0.0312
      2 C          63.4106   85.5854   12.8645 C.2     1  UNL1        0.0121
      3 C          62.9477   85.1307   11.5122 C.2     1  UNL1       -0.0081
      4 C          62.5900   86.1412   10.4630 C.2     1  UNL1       -0.0194
      5 C          62.6951   87.6066   10.7662 C.2     1  UNL1        0.0425
      6 C          63.1581   88.0612   12.1186 C.2     1  UNL1        0.2231
      7 N          63.3595   89.4277   12.7034 N.2     1  UNL1       -0.0378
      8 C          63.8417   89.2617   14.1140 C.2     1  UNL1        0.3605
      9 N          63.9383   87.7926   14.4010 N.2     1  UNL1       -0.0547
     10 C          63.5158   87.0506   13.1677 C.3     1  UNL1        0.2975
     11 C          64.1697   90.3702   15.0699 C.3     1  UNL1        0.2246
     12 C          65.3512   91.2577   14.8122 C.2     1  UNL1        0.0436
     13 C          65.6791   92.3662   15.7682 C.2     1  UNL1        0.0288
     14 C          64.8257   92.5871   16.9817 C.2     1  UNL1        0.0896
     15 N          63.6442   91.6996   17.2394 N.am    1  UNL1       -0.1770
     16 C          63.3162   90.5912   16.2835 C.2     1  UNL1        0.2627
     17 O          62.1348   89.7037   16.5411 O.2     1  UNL1       -0.2719
     18 N          66.2047   91.0368   13.5987 N.pl3   1  UNL1       -0.3329
     19 H          66.1473   90.1872   13.1046 H       1  UNL1        0.1466
     20 C          67.1457   92.1103   13.1380 C.3     1  UNL1        0.1211
     21 C          66.6413   93.2316   12.2788 C.3     1  UNL1        0.1522
     22 O          65.6112   94.1816   12.8139 O.3     1  UNL1       -0.3783
     23 H          65.3816   93.9313   13.7225 H       1  UNL1        0.2109
     24 C          67.1671   93.4029   10.8844 C.ar    1  UNL1        0.0067
     25 C          67.9573   92.3026   10.2403 C.ar    1  UNL1       -0.0018
     26 C          68.4831   92.4739    8.8460 C.ar    1  UNL1        0.0006
     27 C          68.2187   93.7456    8.0957 C.ar    1  UNL1        0.0114
     28 C          67.4285   94.8459    8.7398 C.ar    1  UNL1        0.0574
     29 CL         67.1640   96.1175    7.9895 Cl      1  UNL1       -0.0823
     30 C          66.9027   94.6745   10.1341 C.ar    1  UNL1        0.0095
     31 C          62.1270   85.6865    9.1106 C.3     1  UNL1        0.0252
     32 C          63.0665   84.9451    8.2064 C.3     1  UNL1        0.0217
     33 C          62.6036   84.4904    6.8540 C.3     1  UNL1        0.0724
     34 N          61.2012   84.7771    6.4058 N.3     1  UNL1       -0.2726
     35 C          60.2616   85.5186    7.3100 C.3     1  UNL1        0.0724
     36 C          60.7246   85.9733    8.6624 C.3     1  UNL1        0.0217
     37 C          60.7382   84.3225    5.0535 C.3     1  UNL1        0.0750
     38 C          61.7329   84.1198    3.9491 C.3     1  UNL1        0.0554
     39 C          61.2877   84.1809    2.5181 C.3     1  UNL1        0.1947
     40 F          61.9729   85.1080    1.5584 F       1  UNL1       -0.2343
@<TRIPOS>BOND
     1     1     2    1
     2     2     3    2
     3     3     4    1
     4     4    31    1
     5    31    32    1
     6    32    33    1
     7    33    34    1
     8    34    37    1
     9    37    38    1
    10    38    39    1
    11    39    40    1
    12    34    35    1
    13    35    36    1
    14     4     5    2
    15     5     6    1
    16     6     7    2
    17     7     8    1
    18     8    11    1
    19    11    12    1
    20    12    18    1
    21    18    20    1
    22    20    21    1
    23    21    22    1
    24    21    24    1
    25    24    25   ar
    26    25    26   ar
    27    26    27   ar
    28    27    28   ar
    29    28    29    1
    30    28    30   ar
    31    12    13    2
    32    13    14    1
    33    14    15    2
    34    15    16    1
    35    16    17    2
    36     8     9    2
    37     9    10    1
    38    10     2    1
    39    36    31    1
    40    10     6    1
    41    16    11    1
    42    30    24   ar
    43    18    19    1
    44    22    23    1
@<TRIPOS>MOLECULE
*****
 40 44 0 0 0
SMALL
GASTEIGER

@<TRIPOS>ATOM
      1 C          59.9964   87.5212    9.6797 C.3     1  UNL1        0.0312
      2 C          61.2618   87.6844   10.4684 C.2     1  UNL1        0.0121
      3 C          61.9069   89.0339   10.5806 C.2     1  UNL1       -0.0081
      4 C          63.1722   89.1970   11.3693 C.2     1  UNL1       -0.0194
      5 C          63.7926   88.0107   12.0460 C.2     1  UNL1        0.0425
      6 C          63.1474   86.6612   11.9339 C.2     1  UNL1        0.2231
      7 N          63.5248   85.3192   12.4876 N.2     1  UNL1       -0.0378
      8 C          62.4926   84.3266   12.0411 C.2     1  UNL1        0.3605
      9 N          61.4773   85.0552   11.2114 N.2     1  UNL1       -0.0547
     10 C          61.8820   86.4980   11.1451 C.3     1  UNL1        0.2975
     11 C          62.4782   82.8625   12.3670 C.3     1  UNL1        0.2246
     12 C          62.1063   82.4048   13.7462 C.2     1  UNL1        0.0436
     13 C          62.0919   80.9407   14.0720 C.2     1  UNL1        0.0288
     14 C          62.4495   79.9343   13.0188 C.2     1  UNL1        0.0896
     15 N          62.8215   80.3920   11.6396 N.am    1  UNL1       -0.1770
     16 C          62.8358   81.8562   11.3138 C.2     1  UNL1        0.2627
     17 O          63.2078   82.3139    9.9346 O.2     1  UNL1       -0.2719
     18 N          61.7487   83.4111   14.7995 N.pl3   1  UNL1       -0.3329
     19 H          60.8748   83.8636   14.7714 H       1  UNL1        0.1466
     20 C          62.7225   83.7280   15.8955 C.3     1  UNL1        0.1211
     21 C          63.7796   84.7704   15.6813 C.3     1  UNL1        0.1522
     22 O          65.0548   84.4119   14.9774 O.3     1  UNL1       -0.3783
     23 H          65.0343   83.4746   14.7287 H       1  UNL1        0.2109
     24 C          63.5615   86.1713   16.1710 C.ar    1  UNL1        0.0067
     25 C          62.8147   86.4113   17.4495 C.ar    1  UNL1       -0.0018
     26 C          62.5966   87.8122   17.9391 C.ar    1  UNL1        0.0006
     27 C          63.1253   88.9733   17.1503 C.ar    1  UNL1        0.0114
     28 C          63.8722   88.7334   15.8718 C.ar    1  UNL1        0.0574
     29 CL         64.4009   89.8945   15.0829 Cl      1  UNL1       -0.0823
     30 C          64.0903   87.3324   15.3821 C.ar    1  UNL1        0.0095
     31 C          63.8174   90.5466   11.4814 C.3     1  UNL1        0.0252
     32 C          63.8390   91.4683   10.2982 C.3     1  UNL1        0.0217
     33 C          64.4841   92.8178   10.4103 C.3     1  UNL1        0.0724
     34 N          65.1077   93.2457   11.7056 N.3     1  UNL1       -0.2726
     35 C          65.0861   92.3240   12.8889 C.3     1  UNL1        0.0724
     36 C          64.4410   90.9745   12.7768 C.3     1  UNL1        0.0217
     37 C          65.7528   94.5952   11.8178 C.3     1  UNL1        0.0750
     38 C          66.0197   95.4039   10.5830 C.3     1  UNL1        0.0554
     39 C          67.2254   95.1106    9.7403 C.3     1  UNL1        0.1947
     40 F          67.7041   93.6979    9.5819 F       1  UNL1       -0.2343
@<TRIPOS>BOND
     1     1     2    1
     2     2     3    2
     3     3     4    1
     4     4    31    1
     5    31    32    1
     6    32    33    1
     7    33    34    1
     8    34    37    1
     9    37    38    1
    10    38    39    1
    11    39    40    1
    12    34    35    1
    13    35    36    1
    14     4     5    2
    15     5     6    1
    16     6     7    2
    17     7     8    1
    18     8    11    1
    19    11    12    1
    20    12    18    1
    21    18    20    1
    22    20    21    1
    23    21    22    1
    24    21    24    1
    25    24    25   ar
    26    25    26   ar
    27    26    27   ar
    28    27    28   ar
    29    28    29    1
    30    28    30   ar
    31    12    13    2
    32    13    14    1
    33    14    15    2
    34    15    16    1
    35    16    17    2
    36     8     9    2
    37     9    10    1
    38    10     2    1
    39    36    31    1
    40    10     6    1
    41    16    11    1
    42    30    24   ar
    43    18    19    1
    44    22    23    1
@<TRIPOS>MOLECULE
*****
 40 44 0 0 0
SMALL
GASTEIGER

@<TRIPOS>ATOM
      1 C          58.7198   86.6163    8.4741 C.3     1  UNL1        0.0312
      2 C          59.5465   87.8473    8.2480 C.2     1  UNL1        0.0121
      3 C          59.3081   88.6987    7.0363 C.2     1  UNL1       -0.0081
      4 C          60.1348   89.9297    6.8101 C.2     1  UNL1       -0.0194
      5 C          61.2000   90.3093    7.7957 C.2     1  UNL1        0.0425
      6 C          61.4384   89.4579    9.0074 C.2     1  UNL1        0.2231
      7 N          62.4096   89.5793   10.1441 N.2     1  UNL1       -0.0378
      8 C          62.1831   88.4233   11.0727 C.2     1  UNL1        0.3605
      9 N          61.0719   87.5875   10.5100 N.2     1  UNL1       -0.0547
     10 C          60.6116   88.2269    9.2336 C.3     1  UNL1        0.2975
     11 C          62.9357   88.1509   12.3413 C.3     1  UNL1        0.2246
     12 C          63.4476   89.2920   13.1694 C.2     1  UNL1        0.0436
     13 C          64.2002   89.0195   14.4381 C.2     1  UNL1        0.0288
     14 C          64.4409   87.6060   14.8786 C.2     1  UNL1        0.0896
     15 N          63.9290   86.4649   14.0505 N.am    1  UNL1       -0.1770
     16 C          63.1764   86.7374   12.7818 C.2     1  UNL1        0.2627
     17 O          62.6645   85.5963   11.9537 O.2     1  UNL1       -0.2719
     18 N          63.2070   90.7055   12.7290 N.pl3   1  UNL1       -0.3329
     19 H          62.4244   91.1993   13.0650 H       1  UNL1        0.1466
     20 C          64.1588   91.3668   11.7767 C.3     1  UNL1        0.1211
     21 C          65.1760   92.3426   12.2896 C.3     1  UNL1        0.1522
     22 O          65.3117   92.5787   13.7647 O.3     1  UNL1       -0.3783
     23 H          64.6725   92.0258   14.2408 H       1  UNL1        0.2109
     24 C          66.0575   93.0822   11.3274 C.ar    1  UNL1        0.0067
     25 C          65.9800   94.5774   11.2365 C.ar    1  UNL1       -0.0018
     26 C          66.8615   95.3170   10.2743 C.ar    1  UNL1        0.0006
     27 C          67.8207   94.5615    9.4030 C.ar    1  UNL1        0.0114
     28 C          67.8982   93.0663    9.4940 C.ar    1  UNL1        0.0574
     29 CL         68.8574   92.3107    8.6227 Cl      1  UNL1       -0.0823
     30 C          67.0167   92.3266   10.4561 C.ar    1  UNL1        0.0095
     31 C          59.8964   90.7811    5.5983 C.3     1  UNL1        0.0252
     32 C          58.5067   91.2347    5.2620 C.3     1  UNL1        0.0217
     33 C          58.2683   92.0861    4.0503 C.3     1  UNL1        0.0724
     34 N          59.4196   92.4839    3.1749 N.3     1  UNL1       -0.2726
     35 C          60.8092   92.0303    3.5112 C.3     1  UNL1        0.0724
     36 C          61.0477   91.1789    4.7229 C.3     1  UNL1        0.0217
     37 C          59.1813   93.3353    1.9632 C.3     1  UNL1        0.0750
     38 C          60.2650   93.5036    0.9398 C.3     1  UNL1        0.0554
     39 C          60.4099   92.5054   -0.1704 C.3     1  UNL1        0.1947
     40 F          60.9700   91.1432    0.1141 F       1  UNL1       -0.2343
@<TRIPOS>BOND
     1     1     2    1
     2     2     3    2
     3     3     4    1
     4     4    31    1
     5    31    32    1
     6    32    33    1
     7    33    34    1
     8    34    37    1
     9    37    38    1
    10    38    39    1
    11    39    40    1
    12    34    35    1
    13    35    36    1
    14     4     5    2
    15     5     6    1
    16     6     7    2
    17     7     8    1
    18     8    11    1
    19    11    12    1
    20    12    18    1
    21    18    20    1
    22    20    21    1
    23    21    22    1
    24    21    24    1
    25    24    25   ar
    26    25    26   ar
    27    26    27   ar
    28    27    28   ar
    29    28    29    1
    30    28    30   ar
    31    12    13    2
    32    13    14    1
    33    14    15    2
    34    15    16    1
    35    16    17    2
    36     8     9    2
    37     9    10    1
    38    10     2    1
    39    36    31    1
    40    10     6    1
    41    16    11    1
    42    30    24   ar
    43    18    19    1
    44    22    23    1
@<TRIPOS>MOLECULE
*****
 40 44 0 0 0
SMALL
GASTEIGER

@<TRIPOS>ATOM
      1 C          58.8903   92.3631   -1.1825 C.3     1  UNL1        0.0312
      2 C          58.4335   93.4155   -2.1487 C.2     1  UNL1        0.0121
      3 C          56.9941   93.8369   -2.1736 C.2     1  UNL1       -0.0081
      4 C          56.5374   94.8893   -3.1399 C.2     1  UNL1       -0.0194
      5 C          57.5200   95.5205   -4.0813 C.2     1  UNL1        0.0425
      6 C          58.9593   95.0991   -4.0564 C.2     1  UNL1        0.2231
      7 N          60.1480   95.5395   -4.8582 N.2     1  UNL1       -0.0378
      8 C          61.3395   94.7592   -4.3875 C.2     1  UNL1        0.3605
      9 N          60.8871   93.8366   -3.2948 N.2     1  UNL1       -0.0547
     10 C          59.4161   94.0466   -3.0901 C.3     1  UNL1        0.2975
     11 C          62.7378   94.8803   -4.9166 C.3     1  UNL1        0.2246
     12 C          63.8366   95.3780   -4.0251 C.2     1  UNL1        0.0436
     13 C          65.2350   95.4991   -4.5543 C.2     1  UNL1        0.0288
     14 C          65.5345   95.1225   -5.9750 C.2     1  UNL1        0.0896
     15 N          64.4357   94.6248   -6.8666 N.am    1  UNL1       -0.1770
     16 C          63.0374   94.5037   -6.3373 C.2     1  UNL1        0.2627
     17 O          61.9386   94.0060   -7.2289 O.2     1  UNL1       -0.2719
     18 N          63.5372   95.7547   -2.6044 N.pl3   1  UNL1       -0.3329
     19 H          62.6884   96.2012   -2.3820 H       1  UNL1        0.1466
     20 C          64.5308   95.4511   -1.5225 C.3     1  UNL1        0.1211
     21 C          64.1450   94.5617   -0.3780 C.3     1  UNL1        0.1522
     22 O          64.9871   93.3674   -0.0392 O.3     1  UNL1       -0.3783
     23 H          65.7366   93.3158   -0.6527 H       1  UNL1        0.2109
     24 C          62.9171   94.8665    0.4278 C.ar    1  UNL1        0.0067
     25 C          62.5684   96.2882    0.7550 C.ar    1  UNL1       -0.0018
     26 C          61.3405   96.5930    1.5608 C.ar    1  UNL1        0.0006
     27 C          60.4612   95.4760    2.0395 C.ar    1  UNL1        0.0114
     28 C          60.8099   94.0543    1.7124 C.ar    1  UNL1        0.0574
     29 CL         59.9306   92.9373    2.1911 Cl      1  UNL1       -0.0823
     30 C          62.0378   93.7495    0.9066 C.ar    1  UNL1        0.0095
     31 C          55.0979   95.3107   -3.1647 C.3     1  UNL1        0.0252
     32 C          54.4733   95.7711   -4.4485 C.3     1  UNL1        0.0217
     33 C          53.0339   96.1924   -4.4734 C.3     1  UNL1        0.0724
     34 N          52.2191   96.1534   -3.2146 N.3     1  UNL1       -0.2726
     35 C          52.8438   95.6931   -1.9308 C.3     1  UNL1        0.0724
     36 C          54.2831   95.2717   -1.9059 C.3     1  UNL1        0.0217
     37 C          50.7798   96.5748   -3.2394 C.3     1  UNL1        0.0750
     38 C          50.1031   96.8560   -4.5482 C.3     1  UNL1        0.0554
     39 C          49.6672   95.7208   -5.4264 C.3     1  UNL1        0.1947
     40 F          48.3522   95.7903   -6.1447 F       1  UNL1       -0.2343
@<TRIPOS>BOND
     1     1     2    1
     2     2     3    2
     3     3     4    1
     4     4    31    1
     5    31    32    1
     6    32    33    1
     7    33    34    1
     8    34    37    1
     9    37    38    1
    10    38    39    1
    11    39    40    1
    12    34    35    1
    13    35    36    1
    14     4     5    2
    15     5     6    1
    16     6     7    2
    17     7     8    1
    18     8    11    1
    19    11    12    1
    20    12    18    1
    21    18    20    1
    22    20    21    1
    23    21    22    1
    24    21    24    1
    25    24    25   ar
    26    25    26   ar
    27    26    27   ar
    28    27    28   ar
    29    28    29    1
    30    28    30   ar
    31    12    13    2
    32    13    14    1
    33    14    15    2
    34    15    16    1
    35    16    17    2
    36     8     9    2
    37     9    10    1
    38    10     2    1
    39    36    31    1
    40    10     6    1
    41    16    11    1
    42    30    24   ar
    43    18    19    1
    44    22    23    1
@<TRIPOS>MOLECULE
*****
 40 44 0 0 0
SMALL
GASTEIGER

@<TRIPOS>ATOM
      1 C          61.2415   89.2015   11.6800 C.3     1  UNL1        0.0312
      2 C          62.4655   88.9625   12.5135 C.2     1  UNL1        0.0121
      3 C          63.3075   90.1212   12.9589 C.2     1  UNL1       -0.0081
      4 C          64.5314   89.8823   13.7924 C.2     1  UNL1       -0.0194
      5 C          64.9135   88.4846   14.1805 C.2     1  UNL1        0.0425
      6 C          64.0715   87.3259   13.7350 C.2     1  UNL1        0.2231
      7 N          64.1972   85.8484   13.9611 N.2     1  UNL1       -0.0378
      8 C          63.0509   85.1742   13.2674 C.2     1  UNL1        0.3605
      9 N          62.2167   86.2350   12.6125 N.2     1  UNL1       -0.0547
     10 C          62.8475   87.5648   12.9015 C.3     1  UNL1        0.2975
     11 C          62.7853   83.6982   13.2342 C.3     1  UNL1        0.2246
     12 C          62.9172   82.9412   11.9460 C.2     1  UNL1        0.0436
     13 C          62.6516   81.4652   11.9130 C.2     1  UNL1        0.0288
     14 C          62.2541   80.7463   13.1681 C.2     1  UNL1        0.0896
     15 N          62.1222   81.5034   14.4563 N.am    1  UNL1       -0.1770
     16 C          62.3878   82.9794   14.4893 C.2     1  UNL1        0.2627
     17 O          62.2559   83.7364   15.7775 O.2     1  UNL1       -0.2719
     18 N          63.3146   83.6599   10.6909 N.pl3   1  UNL1       -0.3329
     19 H          64.0073   83.2792   10.1040 H       1  UNL1        0.1466
     20 C          62.6568   84.9588   10.3301 C.3     1  UNL1        0.1211
     21 C          62.4237   85.3067    8.8897 C.3     1  UNL1        0.1522
     22 O          63.3162   84.7376    7.8268 O.3     1  UNL1       -0.3783
     23 H          63.9868   84.1698    8.2376 H       1  UNL1        0.2109
     24 C          61.2982   86.2236    8.5123 C.ar    1  UNL1        0.0067
     25 C          60.1441   85.7028    7.7081 C.ar    1  UNL1       -0.0018
     26 C          59.0186   86.6197    7.3306 C.ar    1  UNL1        0.0006
     27 C          59.0471   88.0574    7.7574 C.ar    1  UNL1        0.0114
     28 C          60.2012   88.5782    8.5616 C.ar    1  UNL1        0.0574
     29 CL         60.2298   90.0159    8.9884 Cl      1  UNL1       -0.0823
     30 C          61.3268   87.6613    8.9390 C.ar    1  UNL1        0.0095
     31 C          65.3735   91.0411   14.2378 C.3     1  UNL1        0.0252
     32 C          66.3568   91.6617   13.2902 C.3     1  UNL1        0.0217
     33 C          67.1988   92.8204   13.7356 C.3     1  UNL1        0.0724
     34 N          67.0575   93.3585   15.1286 N.3     1  UNL1       -0.2726
     35 C          66.0741   92.7379   16.0762 C.3     1  UNL1        0.0724
     36 C          65.2321   91.5792   15.6308 C.3     1  UNL1        0.0217
     37 C          67.8994   94.5172   15.5741 C.3     1  UNL1        0.0750
     38 C          69.2675   94.2764   16.1401 C.3     1  UNL1        0.0554
     39 C          69.8064   92.8795   16.2310 C.3     1  UNL1        0.1947
     40 F          69.0523   91.8330   16.9966 F       1  UNL1       -0.2343
@<TRIPOS>BOND
     1     1     2    1
     2     2     3    2
     3     3     4    1
     4     4    31    1
     5    31    32    1
     6    32    33    1
     7    33    34    1
     8    34    37    1
     9    37    38    1
    10    38    39    1
    11    39    40    1
    12    34    35    1
    13    35    36    1
    14     4     5    2
    15     5     6    1
    16     6     7    2
    17     7     8    1
    18     8    11    1
    19    11    12    1
    20    12    18    1
    21    18    20    1
    22    20    21    1
    23    21    22    1
    24    21    24    1
    25    24    25   ar
    26    25    26   ar
    27    26    27   ar
    28    27    28   ar
    29    28    29    1
    30    28    30   ar
    31    12    13    2
    32    13    14    1
    33    14    15    2
    34    15    16    1
    35    16    17    2
    36     8     9    2
    37     9    10    1
    38    10     2    1
    39    36    31    1
    40    10     6    1
    41    16    11    1
    42    30    24   ar
    43    18    19    1
    44    22    23    1
