@<TRIPOS>MOLECULE
*****
 30 34 0 0 0
SMALL
GASTEIGER

@<TRIPOS>ATOM
      1 C          64.0448   84.3454   14.2762 C.3     1  UNL1        0.0000
      2 C          63.2501   83.7660   13.1436 C.3     1  UNL1        0.0002
      3 C          63.8261   82.8638   14.1944 C.3     1  UNL1        0.0025
      4 C          63.6074   81.3821   14.1125 C.3     1  UNL1        0.0292
      5 C          62.8127   80.8027   12.9799 C.3     1  UNL1        0.1105
      6 O          62.5940   79.3209   12.8981 O.3     1  UNL1       -0.3845
      7 C          62.2367   81.7049   11.9292 C.3     1  UNL1        0.0292
      8 C          62.4554   83.1866   12.0110 C.3     1  UNL1        0.0024
      9 C          61.8794   84.0890   10.9602 C.3     1  UNL1        0.0002
     10 C          62.0981   85.5706   11.0421 C.3     1  UNL1        0.0023
     11 C          62.8928   86.1501   12.1747 C.3     1  UNL1        0.0247
     12 C          63.4688   85.2478   13.2254 C.3     1  UNL1        0.0022
     13 C          64.2634   85.8272   14.3580 C.3     1  UNL1        0.0002
     14 C          64.4821   87.3089   14.4399 C.3     1  UNL1        0.0026
     15 C          63.9061   88.2112   13.3891 C.3     1  UNL1        0.0264
     16 C          64.6749   88.9313   14.4571 C.3     1  UNL1        0.0027
     17 C          63.9555   89.6993   13.2071 C.3     1  UNL1        0.0277
     18 C          63.1914   90.0396   11.9620 C.3     1  UNL1        0.0069
     19 C          62.6697   88.7618   11.3745 C.3     1  UNL1        0.0273
     20 C          63.1115   87.6318   12.2565 C.3     1  UNL1        0.0884
     21 O          62.2996   87.1994   11.0717 O.3     1  UNL1       -0.3867
     22 H          63.0294   78.8879   13.6490 H       1  UNL1        0.2103
     23 H          62.1991   86.2347   11.0833 H       1  UNL1        0.2102
     24 C          64.6475   90.6757   14.1114 C.ar    1  UNL1        0.0155
     25 C          65.9942   91.2201   13.7372 C.ar    1  UNL1        0.0055
     26 C          66.6862   92.1966   14.6415 C.ar    1  UNL1        0.0821
     27 C          66.0314   92.6286   15.9200 C.ar    1  UNL1        0.3460
     28 O          66.7234   93.6050   16.8243 O.2     1  UNL1       -0.2445
     29 O          64.6847   92.0842   16.2942 O.2     1  UNL1       -0.4182
     30 C          63.9928   91.1078   15.3899 C.ar    1  UNL1        0.1787
@<TRIPOS>BOND
     1     2     1    1
     2     2     3    1
     3     3     4    1
     4     4     5    1
     5     5     6    1
     6     5     7    1
     7     8     7    1
     8     8     9    1
     9     9    10    1
    10    11    10    1
    11    11    12    1
    12    12    13    1
    13    13    14    1
    14    14    15    1
    15    15    16    1
    16    15    17    1
    17    17    24    1
    18    24    25   ar
    19    25    26   ar
    20    26    27   ar
    21    27    28    2
    22    27    29   ar
    23    29    30   ar
    24    17    18    1
    25    18    19    1
    26    19    20    1
    27    20    21    1
    28     8     2    1
    29    20    11    1
    30    12     2    1
    31    20    15    1
    32    30    24   ar
    33     6    22    1
    34    21    23    1
@<TRIPOS>MOLECULE
*****
 30 34 0 0 0
SMALL
GASTEIGER

@<TRIPOS>ATOM
      1 C          64.9297   88.9760   14.5117 C.3     1  UNL1        0.0000
      2 C          64.6190   90.1263   13.6005 C.3     1  UNL1        0.0002
      3 C          65.4548   90.3453   14.8266 C.3     1  UNL1        0.0025
      4 C          65.9799   91.7147   15.1415 C.3     1  UNL1        0.0292
      5 C          65.6691   92.8649   14.2303 C.3     1  UNL1        0.1105
      6 O          66.1942   94.2343   14.5452 O.3     1  UNL1       -0.3845
      7 C          64.8333   92.6459   13.0042 C.3     1  UNL1        0.0292
      8 C          64.3082   91.2765   12.6893 C.3     1  UNL1        0.0024
      9 C          63.4724   91.0574   11.4631 C.3     1  UNL1        0.0002
     10 C          62.9473   89.6881   11.1483 C.3     1  UNL1        0.0023
     11 C          63.2580   88.5378   12.0595 C.3     1  UNL1        0.0247
     12 C          64.0939   88.7569   13.2856 C.3     1  UNL1        0.0022
     13 C          64.4046   87.6066   14.1968 C.3     1  UNL1        0.0002
     14 C          63.8796   86.2373   13.8819 C.3     1  UNL1        0.0026
     15 C          63.0437   86.0182   12.6558 C.3     1  UNL1        0.0264
     16 C          63.2706   84.7784   13.4691 C.3     1  UNL1        0.0027
     17 C          62.3925   84.7906   12.0912 C.3     1  UNL1        0.0277
     18 C          61.6792   85.1821   10.8311 C.3     1  UNL1        0.0069
     19 C          61.8897   86.6517   10.6169 C.3     1  UNL1        0.0273
     20 C          62.7329   87.1684   11.7446 C.3     1  UNL1        0.0884
     21 O          62.3418   88.2166   10.7454 O.3     1  UNL1       -0.3867
     22 H          66.7110   94.2017   15.3654 H       1  UNL1        0.2103
     23 H          62.7141   89.0719   11.0114 H       1  UNL1        0.2102
     24 C          62.4452   83.4132   12.6829 C.ar    1  UNL1        0.0155
     25 C          62.9104   82.2561   11.8494 C.ar    1  UNL1        0.0055
     26 C          62.9631   80.8787   12.4411 C.ar    1  UNL1        0.0821
     27 C          62.5505   80.6585   13.8663 C.ar    1  UNL1        0.3460
     28 O          62.6032   79.2811   14.4581 O.2     1  UNL1       -0.2445
     29 O          62.0852   81.8155   14.6998 O.2     1  UNL1       -0.4182
     30 C          62.0326   83.1929   14.1081 C.ar    1  UNL1        0.1787
@<TRIPOS>BOND
     1     2     1    1
     2     2     3    1
     3     3     4    1
     4     4     5    1
     5     5     6    1
     6     5     7    1
     7     8     7    1
     8     8     9    1
     9     9    10    1
    10    11    10    1
    11    11    12    1
    12    12    13    1
    13    13    14    1
    14    14    15    1
    15    15    16    1
    16    15    17    1
    17    17    24    1
    18    24    25   ar
    19    25    26   ar
    20    26    27   ar
    21    27    28    2
    22    27    29   ar
    23    29    30   ar
    24    17    18    1
    25    18    19    1
    26    19    20    1
    27    20    21    1
    28     8     2    1
    29    20    11    1
    30    12     2    1
    31    20    15    1
    32    30    24   ar
    33     6    22    1
    34    21    23    1
@<TRIPOS>MOLECULE
*****
 30 34 0 0 0
SMALL
GASTEIGER

@<TRIPOS>ATOM
      1 C          61.7801   90.0124    9.9908 C.3     1  UNL1        0.0000
      2 C          61.2477   88.6148    9.8765 C.3     1  UNL1        0.0002
      3 C          60.8149   89.6646    8.8965 C.3     1  UNL1        0.0025
      4 C          59.8497   89.3168    7.8023 C.3     1  UNL1        0.0292
      5 C          59.3174   87.9191    7.6880 C.3     1  UNL1        0.1105
      6 O          58.3521   87.5714    6.5937 O.3     1  UNL1       -0.3845
      7 C          59.7502   86.8693    8.6680 C.3     1  UNL1        0.0292
      8 C          60.7154   87.2171    9.7622 C.3     1  UNL1        0.0024
      9 C          61.1483   86.1671   10.7422 C.3     1  UNL1        0.0002
     10 C          62.1135   86.5150   11.8364 C.3     1  UNL1        0.0023
     11 C          62.6458   87.9126   11.9507 C.3     1  UNL1        0.0247
     12 C          62.2130   88.9625   10.9708 C.3     1  UNL1        0.0022
     13 C          62.7453   90.3602   11.0851 C.3     1  UNL1        0.0002
     14 C          63.7105   90.7080   12.1793 C.3     1  UNL1        0.0026
     15 C          64.1434   89.6581   13.1593 C.3     1  UNL1        0.0264
     16 C          64.7572   91.0058   13.3981 C.3     1  UNL1        0.0027
     17 C          65.0755   89.7045   14.3335 C.3     1  UNL1        0.0277
     18 C          65.1193   88.3355   14.9450 C.3     1  UNL1        0.0069
     19 C          64.2142   87.4430   14.1486 C.3     1  UNL1        0.0273
     20 C          63.6111   88.2604   13.0450 C.3     1  UNL1        0.0884
     21 O          63.1660   86.8280   13.0565 O.3     1  UNL1       -0.3867
     22 H          58.1791   88.3580    6.0531 H       1  UNL1        0.2103
     23 H          62.5467   86.6760   12.3255 H       1  UNL1        0.2102
     24 C          65.8313   90.9085   14.8123 C.ar    1  UNL1        0.0155
     25 C          67.1846   91.2192   14.2448 C.ar    1  UNL1        0.0055
     26 C          67.9403   92.4232   14.7237 C.ar    1  UNL1        0.0821
     27 C          67.3427   93.3165   15.7701 C.ar    1  UNL1        0.3460
     28 O          68.0984   94.5205   16.2489 O.2     1  UNL1       -0.2445
     29 O          65.9894   93.0058   16.3376 O.2     1  UNL1       -0.4182
     30 C          65.2337   91.8018   15.8587 C.ar    1  UNL1        0.1787
@<TRIPOS>BOND
     1     2     1    1
     2     2     3    1
     3     3     4    1
     4     4     5    1
     5     5     6    1
     6     5     7    1
     7     8     7    1
     8     8     9    1
     9     9    10    1
    10    11    10    1
    11    11    12    1
    12    12    13    1
    13    13    14    1
    14    14    15    1
    15    15    16    1
    16    15    17    1
    17    17    24    1
    18    24    25   ar
    19    25    26   ar
    20    26    27   ar
    21    27    28    2
    22    27    29   ar
    23    29    30   ar
    24    17    18    1
    25    18    19    1
    26    19    20    1
    27    20    21    1
    28     8     2    1
    29    20    11    1
    30    12     2    1
    31    20    15    1
    32    30    24   ar
    33     6    22    1
    34    21    23    1
@<TRIPOS>MOLECULE
*****
 30 34 0 0 0
SMALL
GASTEIGER

@<TRIPOS>ATOM
      1 C          63.6608   83.7116   11.5851 C.3     1  UNL1        0.0000
      2 C          63.1435   82.4326   12.1738 C.3     1  UNL1        0.0002
      3 C          63.5533   82.4826   10.7318 C.3     1  UNL1        0.0025
      4 C          63.4458   81.2537    9.8786 C.3     1  UNL1        0.0292
      5 C          62.9285   79.9747   10.4673 C.3     1  UNL1        0.1105
      6 O          62.8210   78.7458    9.6140 O.3     1  UNL1       -0.3845
      7 C          62.5187   79.9247   11.9094 C.3     1  UNL1        0.0292
      8 C          62.6262   81.1537   12.7626 C.3     1  UNL1        0.0024
      9 C          62.2164   81.1037   14.2047 C.3     1  UNL1        0.0002
     10 C          62.3239   82.3327   15.0580 C.3     1  UNL1        0.0023
     11 C          62.8412   83.6116   14.4692 C.3     1  UNL1        0.0247
     12 C          63.2510   83.6616   13.0272 C.3     1  UNL1        0.0022
     13 C          63.7683   84.9406   12.4384 C.3     1  UNL1        0.0002
     14 C          63.8758   86.1695   13.2916 C.3     1  UNL1        0.0026
     15 C          63.4660   86.1196   14.7338 C.3     1  UNL1        0.0264
     16 C          63.9622   87.4626   14.2866 C.3     1  UNL1        0.0027
     17 C          63.4598   87.1621   15.8121 C.3     1  UNL1        0.0277
     18 C          62.9387   86.5275   17.0674 C.3     1  UNL1        0.0069
     19 C          62.6228   85.0927   16.7648 C.3     1  UNL1        0.0273
     20 C          62.9487   84.8406   15.3226 C.3     1  UNL1        0.0884
     21 O          62.4160   83.6397   16.0466 O.3     1  UNL1       -0.3867
     22 H          63.1242   78.9487    8.7152 H       1  UNL1        0.2103
     23 H          62.3740   82.8867   15.4366 H       1  UNL1        0.2102
     24 C          63.8979   88.5888   15.6617 C.ar    1  UNL1        0.0155
     25 C          64.9982   88.9387   14.7043 C.ar    1  UNL1        0.0055
     26 C          65.4362   90.3654   14.5539 C.ar    1  UNL1        0.0821
     27 C          64.7738   91.4423   15.3611 C.ar    1  UNL1        0.3460
     28 O          65.2118   92.8691   15.2108 O.2     1  UNL1       -0.2445
     29 O          63.6735   91.0925   16.3186 O.2     1  UNL1       -0.4182
     30 C          63.2355   89.6657   16.4689 C.ar    1  UNL1        0.1787
@<TRIPOS>BOND
     1     2     1    1
     2     2     3    1
     3     3     4    1
     4     4     5    1
     5     5     6    1
     6     5     7    1
     7     8     7    1
     8     8     9    1
     9     9    10    1
    10    11    10    1
    11    11    12    1
    12    12    13    1
    13    13    14    1
    14    14    15    1
    15    15    16    1
    16    15    17    1
    17    17    24    1
    18    24    25   ar
    19    25    26   ar
    20    26    27   ar
    21    27    28    2
    22    27    29   ar
    23    29    30   ar
    24    17    18    1
    25    18    19    1
    26    19    20    1
    27    20    21    1
    28     8     2    1
    29    20    11    1
    30    12     2    1
    31    20    15    1
    32    30    24   ar
    33     6    22    1
    34    21    23    1
