@<TRIPOS>MOLECULE
*****
 31 33 0 0 0
SMALL
GASTEIGER

@<TRIPOS>ATOM
      1 C          61.2562   89.6377   11.8037 C.3     1  UNL1        0.0721
      2 C          60.2815   86.9851    9.0173 C.ar    1  UNL1        0.0618
      3 C          60.3375   88.2642    9.7988 C.ar    1  UNL1        0.0298
      4 C          61.2002   88.3585   11.0223 C.ar    1  UNL1        0.0662
      5 N          62.0068   87.1736   11.4643 N.ar    1  UNL1       -0.2306
      6 C          61.9507   85.8945   10.6828 C.ar    1  UNL1        0.1615
      7 N          61.0881   85.8003    9.4593 N.ar    1  UNL1       -0.2309
      8 C          62.7573   84.7095   11.1249 C.ar    1  UNL1        0.0366
      9 C          63.4985   83.8871   10.1128 C.ar    1  UNL1        0.0031
     10 C          64.3051   82.7022   10.5549 C.ar    1  UNL1        0.0010
     11 C          64.3705   82.3397   12.0089 C.ar    1  UNL1        0.0114
     12 C          63.6293   83.1622   13.0210 C.ar    1  UNL1        0.0578
     13 CL         63.6947   82.7997   14.4751 Cl      1  UNL1       -0.0822
     14 C          62.8227   84.3471   12.5789 C.ar    1  UNL1        0.0144
     15 C          58.8760   88.1378    7.1610 C.3     1  UNL1        0.0067
     16 C          59.4188   86.8909    7.7938 C.3     1  UNL1        0.0459
     17 C          62.5167   90.4506   11.8223 C.ar    1  UNL1       -0.0162
     18 C          63.3062   90.5813   13.0911 C.ar    1  UNL1       -0.0042
     19 C          64.5667   91.3942   13.1096 C.ar    1  UNL1       -0.0041
     20 C          65.0377   92.0763   11.8594 C.ar    1  UNL1       -0.0131
     21 C          64.2483   91.9455   10.5908 C.ar    1  UNL1       -0.0041
     22 C          62.9878   91.1326   10.5722 C.ar    1  UNL1       -0.0042
     23 C          66.2982   92.8892   11.8780 C.3     1  UNL1        0.1113
     24 C          66.9440   93.2419   13.1852 C.2     1  UNL1        0.2270
     25 O          66.4523   94.4214   13.9706 O.2     1  UNL1       -0.2747
     26 N          68.0816   92.4150   13.7069 N.am    1  UNL1       -0.3017
     27 H          68.4043   91.6408   13.1914 H       1  UNL1        0.1495
     28 C          68.7274   92.7676   15.0140 C.3     1  UNL1        0.1213
     29 C          68.0229   92.4672   16.3038 C.3     1  UNL1        0.1583
     30 O          66.6890   93.0895   16.5924 O.3     1  UNL1       -0.3802
     31 H          66.7931   94.0495   16.6841 H       1  UNL1        0.2105
@<TRIPOS>BOND
     1    15    16    1
     2    16     2    1
     3     2     3   ar
     4     3     4   ar
     5     4     1    1
     6     1    17    1
     7    17    18   ar
     8    18    19   ar
     9    19    20   ar
    10    20    23    1
    11    23    24    1
    12    24    25    2
    13    24    26   am
    14    26    28    1
    15    28    29    1
    16    29    30    1
    17    20    21   ar
    18    21    22   ar
    19     4     5   ar
    20     5     6   ar
    21     6     8    1
    22     8     9   ar
    23     9    10   ar
    24    10    11   ar
    25    11    12   ar
    26    12    13    1
    27    12    14   ar
    28     6     7   ar
    29     7     2   ar
    30    22    17   ar
    31    14     8   ar
    32    26    27    1
    33    30    31    1
@<TRIPOS>MOLECULE
*****
 31 33 0 0 0
SMALL
GASTEIGER

@<TRIPOS>ATOM
      1 C          63.7366   85.4546   16.0022 C.3     1  UNL1        0.0721
      2 C          63.2209   82.2663   13.6959 C.ar    1  UNL1        0.0618
      3 C          63.5129   83.1129   14.8992 C.ar    1  UNL1        0.0298
      4 C          63.4446   84.6080   14.7989 C.ar    1  UNL1        0.0662
      5 N          63.0843   85.2565   13.4952 N.ar    1  UNL1       -0.2306
      6 C          62.7923   84.4099   12.2919 C.ar    1  UNL1        0.1615
      7 N          62.8606   82.9148   12.3923 N.ar    1  UNL1       -0.2309
      8 C          62.4320   85.0584   10.9881 C.ar    1  UNL1        0.0366
      9 C          63.1805   84.6982    9.7392 C.ar    1  UNL1        0.0031
     10 C          62.8202   85.3467    8.4354 C.ar    1  UNL1        0.0010
     11 C          61.7113   86.3553    8.3807 C.ar    1  UNL1        0.0114
     12 C          60.9627   86.7154    9.6297 C.ar    1  UNL1        0.0578
     13 CL         59.8538   87.7240    9.5750 Cl      1  UNL1       -0.0822
     14 C          61.3230   86.0670   10.9334 C.ar    1  UNL1        0.0144
     15 C          62.2171   79.9279   13.1724 C.3     1  UNL1        0.0067
     16 C          63.2892   80.7713   13.7963 C.3     1  UNL1        0.0459
     17 C          63.7786   86.9487   15.8758 C.ar    1  UNL1       -0.0162
     18 C          64.4913   87.5837   14.7186 C.ar    1  UNL1       -0.0042
     19 C          64.5333   89.0777   14.5922 C.ar    1  UNL1       -0.0041
     20 C          63.8627   89.9368   15.6229 C.ar    1  UNL1       -0.0131
     21 C          63.1501   89.3018   16.7800 C.ar    1  UNL1       -0.0041
     22 C          63.1081   87.8078   16.9064 C.ar    1  UNL1       -0.0042
     23 C          63.9048   91.4309   15.4964 C.3     1  UNL1        0.1113
     24 C          65.1779   92.1139   15.0930 C.2     1  UNL1        0.2270
     25 O          65.4948   92.3124   13.6403 O.2     1  UNL1       -0.2747
     26 N          66.1342   92.5984   16.1422 N.am    1  UNL1       -0.3017
     27 H          65.9262   92.4681   17.0956 H       1  UNL1        0.1495
     28 C          67.4072   93.2813   15.7388 C.3     1  UNL1        0.1213
     29 C          68.5759   92.4697   15.2639 C.3     1  UNL1        0.1583
     30 O          68.6123   91.9616   13.8531 O.3     1  UNL1       -0.3802
     31 H          67.9018   91.3140   13.7242 H       1  UNL1        0.2105
@<TRIPOS>BOND
     1    15    16    1
     2    16     2    1
     3     2     3   ar
     4     3     4   ar
     5     4     1    1
     6     1    17    1
     7    17    18   ar
     8    18    19   ar
     9    19    20   ar
    10    20    23    1
    11    23    24    1
    12    24    25    2
    13    24    26   am
    14    26    28    1
    15    28    29    1
    16    29    30    1
    17    20    21   ar
    18    21    22   ar
    19     4     5   ar
    20     5     6   ar
    21     6     8    1
    22     8     9   ar
    23     9    10   ar
    24    10    11   ar
    25    11    12   ar
    26    12    13    1
    27    12    14   ar
    28     6     7   ar
    29     7     2   ar
    30    22    17   ar
    31    14     8   ar
    32    26    27    1
    33    30    31    1
@<TRIPOS>MOLECULE
*****
 31 33 0 0 0
SMALL
GASTEIGER

@<TRIPOS>ATOM
      1 C          61.3703   89.7661   11.9057 C.3     1  UNL1        0.0721
      2 C          60.2229   87.2732    9.0388 C.ar    1  UNL1        0.0618
      3 C          60.3429   88.5126    9.8752 C.ar    1  UNL1        0.0298
      4 C          61.2504   88.5266   11.0694 C.ar    1  UNL1        0.0662
      5 N          62.0380   87.3012   11.4273 N.ar    1  UNL1       -0.2306
      6 C          61.9181   86.0619   10.5909 C.ar    1  UNL1        0.1615
      7 N          61.0105   86.0478    9.3967 N.ar    1  UNL1       -0.2309
      8 C          62.7057   84.8364   10.9488 C.ar    1  UNL1        0.0366
      9 C          63.4765   84.1046    9.8903 C.ar    1  UNL1        0.0031
     10 C          64.2641   82.8792   10.2482 C.ar    1  UNL1        0.0010
     11 C          64.2809   82.3856   11.6645 C.ar    1  UNL1        0.0114
     12 C          63.5101   83.1174   12.7230 C.ar    1  UNL1        0.0578
     13 CL         63.5269   82.6238   14.1394 Cl      1  UNL1       -0.0822
     14 C          62.7225   84.3428   12.3651 C.ar    1  UNL1        0.0144
     15 C          59.0412   88.5297    7.0960 C.3     1  UNL1        0.0067
     16 C          59.3154   87.2592    7.8446 C.3     1  UNL1        0.0459
     17 C          62.6627   90.5268   11.9381 C.ar    1  UNL1       -0.0162
     18 C          63.1859   91.1700   10.6881 C.ar    1  UNL1       -0.0042
     19 C          64.4783   91.9308   10.7205 C.ar    1  UNL1       -0.0041
     20 C          65.2474   92.0483   12.0030 C.ar    1  UNL1       -0.0131
     21 C          64.7242   91.4051   13.2529 C.ar    1  UNL1       -0.0041
     22 C          63.4318   90.6443   13.2205 C.ar    1  UNL1       -0.0042
     23 C          66.5398   92.8090   12.0354 C.3     1  UNL1        0.1113
     24 C          66.6662   94.1048   11.2903 C.2     1  UNL1        0.2270
     25 O          67.5891   94.2056   10.1121 O.2     1  UNL1       -0.2747
     26 N          65.8698   95.2998   11.7235 N.am    1  UNL1       -0.3017
     27 H          65.2641   95.2337   12.4968 H       1  UNL1        0.1495
     28 C          65.9962   96.5955   10.9785 C.3     1  UNL1        0.1213
     29 C          65.2955   96.7767    9.6646 C.3     1  UNL1        0.1583
     30 O          65.8253   96.1040    8.4331 O.3     1  UNL1       -0.3802
     31 H          66.6917   96.4776    8.2079 H       1  UNL1        0.2105
@<TRIPOS>BOND
     1    15    16    1
     2    16     2    1
     3     2     3   ar
     4     3     4   ar
     5     4     1    1
     6     1    17    1
     7    17    18   ar
     8    18    19   ar
     9    19    20   ar
    10    20    23    1
    11    23    24    1
    12    24    25    2
    13    24    26   am
    14    26    28    1
    15    28    29    1
    16    29    30    1
    17    20    21   ar
    18    21    22   ar
    19     4     5   ar
    20     5     6   ar
    21     6     8    1
    22     8     9   ar
    23     9    10   ar
    24    10    11   ar
    25    11    12   ar
    26    12    13    1
    27    12    14   ar
    28     6     7   ar
    29     7     2   ar
    30    22    17   ar
    31    14     8   ar
    32    26    27    1
    33    30    31    1
@<TRIPOS>MOLECULE
*****
 31 33 0 0 0
SMALL
GASTEIGER

@<TRIPOS>ATOM
      1 C          61.6758   88.9478   10.7464 C.3     1  UNL1        0.0721
      2 C          62.6309   85.5709    8.8933 C.ar    1  UNL1        0.0618
      3 C          62.2414   87.0013    9.1212 C.ar    1  UNL1        0.0298
      4 C          62.0653   87.5173   10.5186 C.ar    1  UNL1        0.0662
      5 N          62.2788   86.6027   11.6882 N.ar    1  UNL1       -0.2306
      6 C          62.6683   85.1722   11.4604 C.ar    1  UNL1        0.1615
      7 N          62.8444   84.6563   10.0629 N.ar    1  UNL1       -0.2309
      8 C          62.8818   84.2576   12.6300 C.ar    1  UNL1        0.0366
      9 C          63.3551   84.8136   13.9403 C.ar    1  UNL1        0.0031
     10 C          63.5686   83.8990   15.1099 C.ar    1  UNL1        0.0010
     11 C          63.3088   82.4283   14.9691 C.ar    1  UNL1        0.0114
     12 C          62.8356   81.8723   13.6587 C.ar    1  UNL1        0.0578
     13 CL         62.5759   80.4017   13.5180 Cl      1  UNL1       -0.0822
     14 C          62.6221   82.7870   12.4892 C.ar    1  UNL1        0.0144
     15 C          61.6052   84.7188    6.6636 C.3     1  UNL1        0.0067
     16 C          62.8069   85.0549    7.4959 C.3     1  UNL1        0.0459
     17 C          62.6974   89.9361   11.2257 C.ar    1  UNL1       -0.0162
     18 C          63.2613   90.9517   10.2767 C.ar    1  UNL1       -0.0042
     19 C          64.2829   91.9400   10.7560 C.ar    1  UNL1       -0.0041
     20 C          64.7405   91.9126   12.1843 C.ar    1  UNL1       -0.0131
     21 C          64.1766   90.8970   13.1332 C.ar    1  UNL1       -0.0041
     22 C          63.1550   89.9087   12.6539 C.ar    1  UNL1       -0.0042
     23 C          65.7621   92.9009   12.6635 C.3     1  UNL1        0.1113
     24 C          66.3951   93.8549   11.6944 C.2     1  UNL1        0.2270
     25 O          67.4858   93.3815   10.7799 O.2     1  UNL1       -0.2747
     26 N          65.9373   95.2823   11.6397 N.am    1  UNL1       -0.3017
     27 H          65.2214   95.5930   12.2399 H       1  UNL1        0.1495
     28 C          66.5702   96.2363   10.6706 C.3     1  UNL1        0.1213
     29 C          66.1664   96.2161    9.2261 C.3     1  UNL1        0.1583
     30 O          66.4150   94.9925    8.3949 O.3     1  UNL1       -0.3802
     31 H          67.3704   94.8559    8.2983 H       1  UNL1        0.2105
@<TRIPOS>BOND
     1    15    16    1
     2    16     2    1
     3     2     3   ar
     4     3     4   ar
     5     4     1    1
     6     1    17    1
     7    17    18   ar
     8    18    19   ar
     9    19    20   ar
    10    20    23    1
    11    23    24    1
    12    24    25    2
    13    24    26   am
    14    26    28    1
    15    28    29    1
    16    29    30    1
    17    20    21   ar
    18    21    22   ar
    19     4     5   ar
    20     5     6   ar
    21     6     8    1
    22     8     9   ar
    23     9    10   ar
    24    10    11   ar
    25    11    12   ar
    26    12    13    1
    27    12    14   ar
    28     6     7   ar
    29     7     2   ar
    30    22    17   ar
    31    14     8   ar
    32    26    27    1
    33    30    31    1
@<TRIPOS>MOLECULE
*****
 31 33 0 0 0
SMALL
GASTEIGER

@<TRIPOS>ATOM
      1 C          61.4967   88.5951   11.0512 C.3     1  UNL1        0.0721
      2 C          62.6230   85.5096    8.8238 C.ar    1  UNL1        0.0618
      3 C          62.1826   86.8888    9.2159 C.ar    1  UNL1        0.0298
      4 C          61.9371   87.2158   10.6591 C.ar    1  UNL1        0.0662
      5 N          62.1321   86.1636   11.7102 N.ar    1  UNL1       -0.2306
      6 C          62.5724   84.7844   11.3180 C.ar    1  UNL1        0.1615
      7 N          62.8179   84.4574    9.8748 N.ar    1  UNL1       -0.2309
      8 C          62.7674   83.7321   12.3691 C.ar    1  UNL1        0.0366
      9 C          63.2021   84.1232   13.7504 C.ar    1  UNL1        0.0031
     10 C          63.3971   83.0709   14.8015 C.ar    1  UNL1        0.0010
     11 C          63.1573   81.6275   14.4712 C.ar    1  UNL1        0.0114
     12 C          62.7226   81.2364   13.0899 C.ar    1  UNL1        0.0578
     13 CL         62.4828   79.7930   12.7596 Cl      1  UNL1       -0.0822
     14 C          62.5276   82.2887   12.0388 C.ar    1  UNL1        0.0144
     15 C          61.7369   84.7136    6.5149 C.3     1  UNL1        0.0067
     16 C          62.8684   85.1826    7.3806 C.3     1  UNL1        0.0459
     17 C          62.5072   89.6957   11.1836 C.ar    1  UNL1       -0.0162
     18 C          63.2449   89.8851   12.4760 C.ar    1  UNL1       -0.0042
     19 C          64.2553   90.9857   12.6084 C.ar    1  UNL1       -0.0041
     20 C          64.5281   91.8970   11.4485 C.ar    1  UNL1       -0.0131
     21 C          63.7905   91.7076   10.1563 C.ar    1  UNL1       -0.0041
     22 C          62.7800   90.6070   10.0239 C.ar    1  UNL1       -0.0042
     23 C          65.5386   92.9976   11.5810 C.3     1  UNL1        0.1113
     24 C          66.6266   92.8972   12.6088 C.2     1  UNL1        0.2270
     25 O          67.8435   92.0644   12.3339 O.2     1  UNL1       -0.2747
     26 N          66.4977   93.6297   13.9114 N.am    1  UNL1       -0.3017
     27 H          65.6990   94.1763   14.0918 H       1  UNL1        0.1495
     28 C          67.5856   93.5293   14.9392 C.3     1  UNL1        0.1213
     29 C          67.3005   92.9093   16.2750 C.3     1  UNL1        0.1583
     30 O          65.8853   92.7780   16.7542 O.3     1  UNL1       -0.3802
     31 H          65.5106   93.6606   16.9016 H       1  UNL1        0.2105
@<TRIPOS>BOND
     1    15    16    1
     2    16     2    1
     3     2     3   ar
     4     3     4   ar
     5     4     1    1
     6     1    17    1
     7    17    18   ar
     8    18    19   ar
     9    19    20   ar
    10    20    23    1
    11    23    24    1
    12    24    25    2
    13    24    26   am
    14    26    28    1
    15    28    29    1
    16    29    30    1
    17    20    21   ar
    18    21    22   ar
    19     4     5   ar
    20     5     6   ar
    21     6     8    1
    22     8     9   ar
    23     9    10   ar
    24    10    11   ar
    25    11    12   ar
    26    12    13    1
    27    12    14   ar
    28     6     7   ar
    29     7     2   ar
    30    22    17   ar
    31    14     8   ar
    32    26    27    1
    33    30    31    1
@<TRIPOS>MOLECULE
*****
 31 33 0 0 0
SMALL
GASTEIGER

@<TRIPOS>ATOM
      1 C          63.7654   91.0787   14.6182 C.3     1  UNL1        0.0721
      2 C          67.4360   92.5334   15.0195 C.ar    1  UNL1        0.0618
      3 C          66.1320   91.8672   15.3447 C.ar    1  UNL1        0.0298
      4 C          65.0694   91.7449   14.2930 C.ar    1  UNL1        0.0662
      5 N          65.3108   92.2889   12.9161 N.ar    1  UNL1       -0.2306
      6 C          66.6148   92.9551   12.5909 C.ar    1  UNL1        0.1615
      7 N          67.6774   93.0773   13.6426 N.ar    1  UNL1       -0.2309
      8 C          66.8563   93.4990   11.2140 C.ar    1  UNL1        0.0366
      9 C          67.6752   92.7159   10.2312 C.ar    1  UNL1        0.0031
     10 C          67.9166   93.2598    8.8542 C.ar    1  UNL1        0.0010
     11 C          67.3392   94.5870    8.4602 C.ar    1  UNL1        0.0114
     12 C          66.5203   95.3702    9.4432 C.ar    1  UNL1        0.0578
     13 CL         65.9429   96.6973    9.0492 Cl      1  UNL1       -0.0822
     14 C          66.2789   94.8262   10.8200 C.ar    1  UNL1        0.0144
     15 C          69.3728   93.8737   16.1160 C.3     1  UNL1        0.0067
     16 C          68.4985   92.6556   16.0712 C.3     1  UNL1        0.0459
     17 C          63.7448   89.6442   15.0561 C.ar    1  UNL1       -0.0162
     18 C          64.3094   88.5793   14.1632 C.ar    1  UNL1       -0.0042
     19 C          64.2888   87.1447   14.6011 C.ar    1  UNL1       -0.0041
     20 C          63.7036   86.7751   15.9319 C.ar    1  UNL1       -0.0131
     21 C          63.1391   87.8400   16.8247 C.ar    1  UNL1       -0.0041
     22 C          63.1597   89.2745   16.3869 C.ar    1  UNL1       -0.0042
     23 C          63.6830   85.3406   16.3698 C.3     1  UNL1        0.1113
     24 C          63.2028   84.2760   15.4285 C.2     1  UNL1        0.2270
     25 O          61.8350   84.3737   14.8206 O.2     1  UNL1       -0.2747
     26 N          64.0903   83.1136   15.0952 N.am    1  UNL1       -0.3017
     27 H          64.9880   83.0494   15.4942 H       1  UNL1        0.1495
     28 C          63.6101   82.0489   14.1540 C.3     1  UNL1        0.1213
     29 C          63.7335   82.2466   12.6722 C.3     1  UNL1        0.1583
     30 O          65.0884   82.3902   12.0450 O.3     1  UNL1       -0.3802
     31 H          65.5020   83.2117   12.3533 H       1  UNL1        0.2105
@<TRIPOS>BOND
     1    15    16    1
     2    16     2    1
     3     2     3   ar
     4     3     4   ar
     5     4     1    1
     6     1    17    1
     7    17    18   ar
     8    18    19   ar
     9    19    20   ar
    10    20    23    1
    11    23    24    1
    12    24    25    2
    13    24    26   am
    14    26    28    1
    15    28    29    1
    16    29    30    1
    17    20    21   ar
    18    21    22   ar
    19     4     5   ar
    20     5     6   ar
    21     6     8    1
    22     8     9   ar
    23     9    10   ar
    24    10    11   ar
    25    11    12   ar
    26    12    13    1
    27    12    14   ar
    28     6     7   ar
    29     7     2   ar
    30    22    17   ar
    31    14     8   ar
    32    26    27    1
    33    30    31    1
@<TRIPOS>MOLECULE
*****
 31 33 0 0 0
SMALL
GASTEIGER

@<TRIPOS>ATOM
      1 C          63.5967   90.9391   14.4734 C.3     1  UNL1        0.0721
      2 C          67.0505   92.7724   15.1514 C.ar    1  UNL1        0.0618
      3 C          65.7779   92.0145   15.3876 C.ar    1  UNL1        0.0298
      4 C          64.8693   91.6971   14.2371 C.ar    1  UNL1        0.0662
      5 N          65.2334   92.1377   12.8503 N.ar    1  UNL1       -0.2306
      6 C          66.5060   92.8957   12.6140 C.ar    1  UNL1        0.1615
      7 N          67.4146   93.2130   13.7646 N.ar    1  UNL1       -0.2309
      8 C          66.8701   93.3363   11.2271 C.ar    1  UNL1        0.0366
      9 C          66.3362   94.6297   10.6867 C.ar    1  UNL1        0.0031
     10 C          66.7003   95.0703    9.2998 C.ar    1  UNL1        0.0010
     11 C          67.5983   94.2175    8.4535 C.ar    1  UNL1        0.0114
     12 C          68.1322   92.9241    8.9940 C.ar    1  UNL1        0.0578
     13 CL         69.0302   92.0713    8.1476 Cl      1  UNL1       -0.0822
     14 C          67.7681   92.4835   10.3808 C.ar    1  UNL1        0.0144
     15 C          69.2572   93.8009   16.0585 C.3     1  UNL1        0.0067
     16 C          67.9591   93.0898   16.3019 C.3     1  UNL1        0.0459
     17 C          63.6474   89.5249   14.9709 C.ar    1  UNL1       -0.0162
     18 C          63.0618   89.1787   16.3079 C.ar    1  UNL1       -0.0042
     19 C          63.1126   87.7645   16.8053 C.ar    1  UNL1       -0.0041
     20 C          63.7488   86.6965   15.9658 C.ar    1  UNL1       -0.0131
     21 C          64.3343   87.0427   14.6290 C.ar    1  UNL1       -0.0041
     22 C          64.2836   88.4569   14.1315 C.ar    1  UNL1       -0.0042
     23 C          63.7995   85.2823   16.4633 C.3     1  UNL1        0.1113
     24 C          63.6035   84.1434   15.5070 C.2     1  UNL1        0.2270
     25 O          64.6049   83.0279   15.4537 O.2     1  UNL1       -0.2747
     26 N          62.4060   84.1200   14.6040 N.am    1  UNL1       -0.3017
     27 H          61.7487   84.8521   14.6390 H       1  UNL1        0.1495
     28 C          62.2099   82.9811   13.6477 C.3     1  UNL1        0.1213
     29 C          61.8765   81.6142   14.1676 C.3     1  UNL1        0.1583
     30 O          62.9683   80.6109   14.3937 O.3     1  UNL1       -0.3802
     31 H          63.3659   80.3684   13.5428 H       1  UNL1        0.2105
@<TRIPOS>BOND
     1    15    16    1
     2    16     2    1
     3     2     3   ar
     4     3     4   ar
     5     4     1    1
     6     1    17    1
     7    17    18   ar
     8    18    19   ar
     9    19    20   ar
    10    20    23    1
    11    23    24    1
    12    24    25    2
    13    24    26   am
    14    26    28    1
    15    28    29    1
    16    29    30    1
    17    20    21   ar
    18    21    22   ar
    19     4     5   ar
    20     5     6   ar
    21     6     8    1
    22     8     9   ar
    23     9    10   ar
    24    10    11   ar
    25    11    12   ar
    26    12    13    1
    27    12    14   ar
    28     6     7   ar
    29     7     2   ar
    30    22    17   ar
    31    14     8   ar
    32    26    27    1
    33    30    31    1
@<TRIPOS>MOLECULE
*****
 31 33 0 0 0
SMALL
GASTEIGER

@<TRIPOS>ATOM
      1 C          64.2207   90.5766   14.8337 C.3     1  UNL1        0.0721
      2 C          62.7284   90.8169   11.1641 C.ar    1  UNL1        0.0618
      3 C          62.8814   90.4516   12.6109 C.ar    1  UNL1        0.0298
      4 C          64.0677   90.9419   13.3869 C.ar    1  UNL1        0.0662
      5 N          65.1011   91.7975   12.7161 N.ar    1  UNL1       -0.2306
      6 C          64.9481   92.1628   11.2693 C.ar    1  UNL1        0.1615
      7 N          63.7618   91.6725   10.4934 N.ar    1  UNL1       -0.2309
      8 C          65.9815   93.0185   10.5985 C.ar    1  UNL1        0.0366
      9 C          67.1788   92.3834    9.9558 C.ar    1  UNL1        0.0031
     10 C          68.2123   93.2390    9.2849 C.ar    1  UNL1        0.0010
     11 C          68.0483   94.7298    9.2568 C.ar    1  UNL1        0.0114
     12 C          66.8509   95.3649    9.8995 C.ar    1  UNL1        0.0578
     13 CL         66.6869   96.8556    9.8714 Cl      1  UNL1       -0.0822
     14 C          65.8176   94.5092   10.5703 C.ar    1  UNL1        0.0144
     15 C          61.5408   88.9397    9.8166 C.3     1  UNL1        0.0067
     16 C          61.5420   90.3265   10.3882 C.3     1  UNL1        0.0459
     17 C          63.9698   89.1673   15.2819 C.ar    1  UNL1       -0.0162
     18 C          64.4643   88.0179   14.4546 C.ar    1  UNL1       -0.0042
     19 C          64.2135   86.6085   14.9028 C.ar    1  UNL1       -0.0041
     20 C          63.4681   86.3486   16.1784 C.ar    1  UNL1       -0.0131
     21 C          62.9737   87.4980   17.0056 C.ar    1  UNL1       -0.0041
     22 C          63.2245   88.9073   16.5574 C.ar    1  UNL1       -0.0042
     23 C          63.2173   84.9393   16.6266 C.3     1  UNL1        0.1113
     24 C          63.2936   83.8132   15.6385 C.2     1  UNL1        0.2270
     25 O          64.5306   82.9687   15.5579 O.2     1  UNL1       -0.2747
     26 N          62.1329   83.5317   14.7311 N.am    1  UNL1       -0.3017
     27 H          61.3210   84.0860   14.7840 H       1  UNL1        0.1495
     28 C          62.2092   82.4057   13.7431 C.3     1  UNL1        0.1213
     29 C          61.4573   81.1328   13.9970 C.3     1  UNL1        0.1583
     30 O          62.0100   79.8256   13.5117 O.3     1  UNL1       -0.3802
     31 H          62.0185   79.8184   12.5417 H       1  UNL1        0.2105
@<TRIPOS>BOND
     1    15    16    1
     2    16     2    1
     3     2     3   ar
     4     3     4   ar
     5     4     1    1
     6     1    17    1
     7    17    18   ar
     8    18    19   ar
     9    19    20   ar
    10    20    23    1
    11    23    24    1
    12    24    25    2
    13    24    26   am
    14    26    28    1
    15    28    29    1
    16    29    30    1
    17    20    21   ar
    18    21    22   ar
    19     4     5   ar
    20     5     6   ar
    21     6     8    1
    22     8     9   ar
    23     9    10   ar
    24    10    11   ar
    25    11    12   ar
    26    12    13    1
    27    12    14   ar
    28     6     7   ar
    29     7     2   ar
    30    22    17   ar
    31    14     8   ar
    32    26    27    1
    33    30    31    1
@<TRIPOS>MOLECULE
*****
 31 33 0 0 0
SMALL
GASTEIGER

@<TRIPOS>ATOM
      1 C          61.8595   89.4611   11.0904 C.3     1  UNL1        0.0721
      2 C          63.9895   91.0615   14.0318 C.ar    1  UNL1        0.0618
      3 C          62.9635   90.2394   13.3098 C.ar    1  UNL1        0.0298
      4 C          62.8856   90.2832   11.8125 C.ar    1  UNL1        0.0662
      5 N          63.8337   91.1492   11.0372 N.ar    1  UNL1       -0.2306
      6 C          64.8597   91.9713   11.7592 C.ar    1  UNL1        0.1615
      7 N          64.9376   91.9274   13.2565 N.ar    1  UNL1       -0.2309
      8 C          65.8079   92.8374   10.9839 C.ar    1  UNL1        0.0366
      9 C          65.5647   94.3142   10.8851 C.ar    1  UNL1        0.0031
     10 C          66.5129   95.1802   10.1098 C.ar    1  UNL1        0.0010
     11 C          67.7042   94.5694    9.4334 C.ar    1  UNL1        0.0114
     12 C          67.9474   93.0925    9.5323 C.ar    1  UNL1        0.0578
     13 CL         69.1388   92.4816    8.8559 Cl      1  UNL1       -0.0822
     14 C          66.9993   92.2265   10.3075 C.ar    1  UNL1        0.0144
     15 C          63.3736   89.9231   16.2845 C.3     1  UNL1        0.0067
     16 C          64.0674   91.0176   15.5292 C.3     1  UNL1        0.0459
     17 C          62.1430   88.0244   10.7653 C.ar    1  UNL1       -0.0162
     18 C          62.0619   87.5466    9.3457 C.ar    1  UNL1       -0.0042
     19 C          62.3454   86.1099    9.0206 C.ar    1  UNL1       -0.0041
     20 C          62.7100   85.1511   10.1151 C.ar    1  UNL1       -0.0131
     21 C          62.7911   85.6290   11.5346 C.ar    1  UNL1       -0.0041
     22 C          62.5076   87.0657   11.8597 C.ar    1  UNL1       -0.0042
     23 C          62.9935   83.7145    9.7901 C.3     1  UNL1        0.1113
     24 C          63.5656   82.8071   10.8386 C.2     1  UNL1        0.2270
     25 O          65.0490   82.6016   10.9242 O.2     1  UNL1       -0.2747
     26 N          62.6543   82.1052   11.8013 N.am    1  UNL1       -0.3017
     27 H          61.6808   82.2401   11.7451 H       1  UNL1        0.1495
     28 C          63.2264   81.1978   12.8498 C.3     1  UNL1        0.1213
     29 C          62.3136   80.3646   13.6998 C.3     1  UNL1        0.1583
     30 O          60.9293   80.8502   14.0127 O.3     1  UNL1       -0.3802
     31 H          60.9829   81.6463   14.5642 H       1  UNL1        0.2105
@<TRIPOS>BOND
     1    15    16    1
     2    16     2    1
     3     2     3   ar
     4     3     4   ar
     5     4     1    1
     6     1    17    1
     7    17    18   ar
     8    18    19   ar
     9    19    20   ar
    10    20    23    1
    11    23    24    1
    12    24    25    2
    13    24    26   am
    14    26    28    1
    15    28    29    1
    16    29    30    1
    17    20    21   ar
    18    21    22   ar
    19     4     5   ar
    20     5     6   ar
    21     6     8    1
    22     8     9   ar
    23     9    10   ar
    24    10    11   ar
    25    11    12   ar
    26    12    13    1
    27    12    14   ar
    28     6     7   ar
    29     7     2   ar
    30    22    17   ar
    31    14     8   ar
    32    26    27    1
    33    30    31    1
