@<TRIPOS>MOLECULE
*****
 44 47 0 0 0
SMALL
GASTEIGER

@<TRIPOS>ATOM
      1 C          61.2171   88.9547   10.0599 C.3     1  UNL1        0.0678
      2 C          61.5887   89.6050   11.3595 C.2     1  UNL1        0.1889
      3 O          60.7640   89.3531   12.5869 O.2     1  UNL1       -0.2898
      4 C          62.7849   90.5071   11.4318 C.ar    1  UNL1        0.0989
      5 C          63.2341   91.4627   10.3664 C.ar    1  UNL1        0.0219
      6 C          64.4688   92.1583   10.8582 C.ar    1  UNL1        0.0185
      7 C          65.3478   93.2024   10.2361 C.ar    1  UNL1        0.0129
      8 C          66.5407   93.7207   10.9834 C.ar    1  UNL1        0.0578
      9 CL         67.4198   94.7649   10.3613 Cl      1  UNL1       -0.0822
     10 C          66.8545   93.1949   12.3527 C.ar    1  UNL1        0.0129
     11 C          65.9755   92.1508   12.9748 C.ar    1  UNL1        0.0184
     12 C          64.7827   91.6325   12.2276 C.ar    1  UNL1        0.0641
     13 N          63.7419   90.6120   12.5820 N.ar    1  UNL1       -0.3038
     14 C          63.6708   89.8332   13.8620 C.ar    1  UNL1        0.0640
     15 C          63.2706   90.5179   15.1353 C.ar    1  UNL1        0.0175
     16 C          63.1994   89.7390   16.4153 C.ar    1  UNL1        0.0014
     17 C          63.5285   88.2756   16.4221 C.ar    1  UNL1        0.0039
     18 C          63.9286   87.5910   15.1488 C.ar    1  UNL1        0.0729
     19 C          63.9998   88.3698   13.8688 C.ar    1  UNL1        0.0214
     20 C          64.2576   86.1275   15.1556 C.3     1  UNL1        0.4186
     21 F          64.5866   84.6641   15.1623 F       1  UNL1       -0.1659
     22 F          63.8937   86.0524   16.6088 F       1  UNL1       -0.1659
     23 F          64.6215   86.2026   13.7023 F       1  UNL1       -0.1659
     24 C          59.8880   89.2461    9.4285 C.3     1  UNL1        0.0081
     25 C          59.7499   89.2405    7.9348 C.3     1  UNL1        0.0005
     26 C          59.0330   88.1135    7.2522 C.3     1  UNL1        0.0000
     27 C          60.0988   85.7502    7.4226 C.3     1  UNL1        0.0000
     28 C          59.0549   86.7385    7.8512 C.3     1  UNL1        0.0000
     29 C          62.1745   88.0131    9.3916 C.3     1  UNL1        0.0341
     30 C          62.4709   86.6797   10.0116 C.ar    1  UNL1       -0.0217
     31 C          63.1359   85.6069    9.2010 C.ar    1  UNL1       -0.0041
     32 C          63.4322   84.2736    9.8210 C.ar    1  UNL1        0.0042
     33 C          63.0637   84.0130   11.2514 C.ar    1  UNL1        0.0533
     34 C          62.3987   85.0858   12.0620 C.ar    1  UNL1        0.0042
     35 C          62.1023   86.4192   11.4420 C.ar    1  UNL1       -0.0041
     36 C          63.3600   82.6797   11.8714 C.2     1  UNL1        0.2459
     37 O          64.5384   82.5232   12.7863 O.2     1  UNL1       -0.2701
     38 N          62.4780   81.5027   11.5764 N.am    1  UNL1       -0.3005
     39 H          61.7046   81.6054   10.9760 H       1  UNL1        0.1498
     40 C          62.7744   80.1694   12.1964 C.3     1  UNL1        0.0956
     41 C          62.0798   79.7593   13.4610 C.3     1  UNL1        0.0629
     42 C          61.1702   80.7233   14.1636 C.2     1  UNL1        0.0520
     43 O          59.7503   80.3378   14.4555 O.co2   1  UNL1       -0.5491
     44 O          61.6806   82.0726   14.5743 O.co2   1  UNL1       -0.5491
@<TRIPOS>UNITY_ATOM_ATTR
43 1
charge -1
@<TRIPOS>BOND
     1    27    28    1
     2    28    26    1
     3    26    25    1
     4    25    24    1
     5     1    24    1
     6     1    29    1
     7    29    30    1
     8    30    31   ar
     9    31    32   ar
    10    32    33   ar
    11    33    36    1
    12    36    37    2
    13    36    38   am
    14    38    40    1
    15    40    41    1
    16    41    42    1
    17    42    43   ar
    18    42    44   ar
    19    33    34   ar
    20    34    35   ar
    21     1     2    1
    22     2     3    2
    23     2     4    1
    24     4     5   ar
    25     5     6   ar
    26     6     7   ar
    27     7     8   ar
    28     8     9    1
    29     8    10   ar
    30    10    11   ar
    31    11    12   ar
    32    12    13   ar
    33    13    14    1
    34    14    15   ar
    35    15    16   ar
    36    16    17   ar
    37    17    18   ar
    38    18    20    1
    39    20    21    1
    40    20    22    1
    41    20    23    1
    42    18    19   ar
    43    35    30   ar
    44    13     4   ar
    45    19    14   ar
    46    12     6   ar
    47    38    39    1
@<TRIPOS>MOLECULE
*****
 44 47 0 0 0
SMALL
GASTEIGER

@<TRIPOS>ATOM
      1 C          63.4823   88.6666   13.6149 C.3     1  UNL1        0.0678
      2 C          63.2357   87.3958   12.8572 C.2     1  UNL1        0.1889
      3 O          63.8070   86.1019   13.3567 O.2     1  UNL1       -0.2898
      4 C          62.4176   87.4188   11.6001 C.ar    1  UNL1        0.0989
      5 C          61.7243   88.6163   11.0212 C.ar    1  UNL1        0.0219
      6 C          61.0275   88.1860    9.7645 C.ar    1  UNL1        0.0185
      7 C          60.1877   88.9377    8.7747 C.ar    1  UNL1        0.0129
      8 C          59.6107   88.2259    7.5872 C.ar    1  UNL1        0.0578
      9 CL         58.7709   88.9776    6.5973 Cl      1  UNL1       -0.0822
     10 C          59.8734   86.7624    7.3894 C.ar    1  UNL1        0.0129
     11 C          60.7131   86.0107    8.3792 C.ar    1  UNL1        0.0184
     12 C          61.2902   86.7225    9.5667 C.ar    1  UNL1        0.0641
     13 N          62.1493   86.2483   10.7012 N.ar    1  UNL1       -0.3038
     14 C          62.6520   84.8493   10.9016 C.ar    1  UNL1        0.0640
     15 C          63.6384   84.2613    9.9364 C.ar    1  UNL1        0.0175
     16 C          64.1410   82.8623   10.1368 C.ar    1  UNL1        0.0014
     17 C          63.6573   82.0513   11.3022 C.ar    1  UNL1        0.0039
     18 C          62.6709   82.6393   12.2673 C.ar    1  UNL1        0.0729
     19 C          62.1683   84.0383   12.0669 C.ar    1  UNL1        0.0214
     20 C          62.1872   81.8282   13.4327 C.3     1  UNL1        0.4186
     21 F          61.7034   81.0172   14.5981 F       1  UNL1       -0.1659
     22 F          62.2103   83.0548   14.2958 F       1  UNL1       -0.1659
     23 F          62.1641   80.6017   12.5695 F       1  UNL1       -0.1659
     24 C          64.2844   88.6406   14.8822 C.3     1  UNL1        0.0081
     25 C          63.6368   88.9983   16.1871 C.3     1  UNL1        0.0005
     26 C          63.0174   87.9274   17.0354 C.3     1  UNL1        0.0000
     27 C          62.2991   85.4683   16.6035 C.3     1  UNL1        0.0000
     28 C          63.3786   86.4892   16.8097 C.3     1  UNL1        0.0000
     29 C          62.9269   89.9635   13.1053 C.3     1  UNL1        0.0341
     30 C          63.8427   90.9845   12.4981 C.ar    1  UNL1       -0.0217
     31 C          63.7203   91.3313   11.0438 C.ar    1  UNL1       -0.0041
     32 C          64.6360   92.3523   10.4366 C.ar    1  UNL1        0.0042
     33 C          65.6743   93.0267   11.2835 C.ar    1  UNL1        0.0533
     34 C          65.7967   92.6800   12.7377 C.ar    1  UNL1        0.0042
     35 C          64.8809   91.6589   13.3450 C.ar    1  UNL1       -0.0041
     36 C          66.5900   94.0477   10.6763 C.2     1  UNL1        0.2459
     37 O          67.7604   93.6072    9.8479 O.2     1  UNL1       -0.2701
     38 N          66.3355   95.5094   10.8975 N.am    1  UNL1       -0.3005
     39 H          65.5674   95.7985   11.4412 H       1  UNL1        0.1498
     40 C          67.2513   96.5304   10.2902 C.3     1  UNL1        0.0956
     41 C          67.1483   96.8558    8.8296 C.3     1  UNL1        0.0629
     42 C          65.8138   96.8203    8.1455 C.2     1  UNL1        0.0520
     43 O          65.7398   96.7547    6.6488 O.co2   1  UNL1       -0.5491
     44 O          64.5534   96.8505    8.9582 O.co2   1  UNL1       -0.5491
@<TRIPOS>UNITY_ATOM_ATTR
43 1
charge -1
@<TRIPOS>BOND
     1    27    28    1
     2    28    26    1
     3    26    25    1
     4    25    24    1
     5     1    24    1
     6     1    29    1
     7    29    30    1
     8    30    31   ar
     9    31    32   ar
    10    32    33   ar
    11    33    36    1
    12    36    37    2
    13    36    38   am
    14    38    40    1
    15    40    41    1
    16    41    42    1
    17    42    43   ar
    18    42    44   ar
    19    33    34   ar
    20    34    35   ar
    21     1     2    1
    22     2     3    2
    23     2     4    1
    24     4     5   ar
    25     5     6   ar
    26     6     7   ar
    27     7     8   ar
    28     8     9    1
    29     8    10   ar
    30    10    11   ar
    31    11    12   ar
    32    12    13   ar
    33    13    14    1
    34    14    15   ar
    35    15    16   ar
    36    16    17   ar
    37    17    18   ar
    38    18    20    1
    39    20    21    1
    40    20    22    1
    41    20    23    1
    42    18    19   ar
    43    35    30   ar
    44    13     4   ar
    45    19    14   ar
    46    12     6   ar
    47    38    39    1
@<TRIPOS>MOLECULE
*****
 44 47 0 0 0
SMALL
GASTEIGER

@<TRIPOS>ATOM
      1 C          61.5252   87.5375   11.0978 C.3     1  UNL1        0.0678
      2 C          61.3662   88.8443   11.8169 C.2     1  UNL1        0.1889
      3 O          60.0582   89.1894   12.4649 O.2     1  UNL1       -0.2898
      4 C          62.5152   89.8059   11.8879 C.ar    1  UNL1        0.0989
      5 C          62.8821   90.8198   10.8451 C.ar    1  UNL1        0.0219
      6 C          64.0927   91.5631   11.3268 C.ar    1  UNL1        0.0185
      7 C          64.8970   92.6732   10.7180 C.ar    1  UNL1        0.0129
      8 C          66.0827   93.2287   11.4497 C.ar    1  UNL1        0.0578
      9 CL         66.8872   94.3388   10.8409 Cl      1  UNL1       -0.0822
     10 C          66.4641   92.6741   12.7903 C.ar    1  UNL1        0.0129
     11 C          65.6597   91.5640   13.3991 C.ar    1  UNL1        0.0184
     12 C          64.4740   91.0085   12.6673 C.ar    1  UNL1        0.0641
     13 N          63.4991   89.9226   13.0141 N.ar    1  UNL1       -0.3038
     14 C          63.5067   89.0980   14.2671 C.ar    1  UNL1        0.0640
     15 C          63.0994   89.7139   15.5728 C.ar    1  UNL1        0.0175
     16 C          63.1070   88.8894   16.8258 C.ar    1  UNL1        0.0014
     17 C          63.5220   87.4489   16.7732 C.ar    1  UNL1        0.0039
     18 C          63.9293   86.8330   15.4675 C.ar    1  UNL1        0.0729
     19 C          63.9217   87.6575   14.2145 C.ar    1  UNL1        0.0214
     20 C          64.3443   85.3925   15.4149 C.3     1  UNL1        0.4186
     21 F          64.7593   83.9520   15.3623 F       1  UNL1       -0.1659
     22 F          63.0191   84.9897   15.9907 F       1  UNL1       -0.1659
     23 F          65.6695   85.7953   14.8391 F       1  UNL1       -0.1659
     24 C          62.7371   86.6885   11.3441 C.3     1  UNL1        0.0081
     25 C          62.6703   85.2055   11.1288 C.3     1  UNL1        0.0005
     26 C          63.0742   84.2690   12.2287 C.3     1  UNL1        0.0000
     27 C          64.2906   82.5149   10.7477 C.3     1  UNL1        0.0000
     28 C          64.2068   83.3085   12.0178 C.3     1  UNL1        0.0000
     29 C          60.4724   87.0797   10.1325 C.3     1  UNL1        0.0341
     30 C          60.0517   87.9721    9.0026 C.ar    1  UNL1       -0.0217
     31 C          59.1870   87.4320    7.9022 C.ar    1  UNL1       -0.0041
     32 C          58.7664   88.3244    6.7724 C.ar    1  UNL1        0.0042
     33 C          59.2104   89.7569    6.7428 C.ar    1  UNL1        0.0533
     34 C          60.0750   90.2970    7.8431 C.ar    1  UNL1        0.0042
     35 C          60.4957   89.4046    8.9731 C.ar    1  UNL1       -0.0041
     36 C          58.7898   90.6493    5.6130 C.2     1  UNL1        0.2459
     37 O          57.3434   90.7373    5.2252 O.2     1  UNL1       -0.2701
     38 N          59.8155   91.4539    4.8708 N.am    1  UNL1       -0.3005
     39 H          60.7648   91.3961    5.1253 H       1  UNL1        0.1498
     40 C          59.3948   92.3463    3.7410 C.3     1  UNL1        0.0956
     41 C          60.4282   93.0912    2.9491 C.3     1  UNL1        0.0629
     42 C          61.6844   92.3964    2.5139 C.2     1  UNL1        0.0520
     43 O          62.0237   92.3040    1.0557 O.co2   1  UNL1       -0.5491
     44 O          62.6011   91.7940    3.5369 O.co2   1  UNL1       -0.5491
@<TRIPOS>UNITY_ATOM_ATTR
43 1
charge -1
@<TRIPOS>BOND
     1    27    28    1
     2    28    26    1
     3    26    25    1
     4    25    24    1
     5     1    24    1
     6     1    29    1
     7    29    30    1
     8    30    31   ar
     9    31    32   ar
    10    32    33   ar
    11    33    36    1
    12    36    37    2
    13    36    38   am
    14    38    40    1
    15    40    41    1
    16    41    42    1
    17    42    43   ar
    18    42    44   ar
    19    33    34   ar
    20    34    35   ar
    21     1     2    1
    22     2     3    2
    23     2     4    1
    24     4     5   ar
    25     5     6   ar
    26     6     7   ar
    27     7     8   ar
    28     8     9    1
    29     8    10   ar
    30    10    11   ar
    31    11    12   ar
    32    12    13   ar
    33    13    14    1
    34    14    15   ar
    35    15    16   ar
    36    16    17   ar
    37    17    18   ar
    38    18    20    1
    39    20    21    1
    40    20    22    1
    41    20    23    1
    42    18    19   ar
    43    35    30   ar
    44    13     4   ar
    45    19    14   ar
    46    12     6   ar
    47    38    39    1
@<TRIPOS>MOLECULE
*****
 44 47 0 0 0
SMALL
GASTEIGER

@<TRIPOS>ATOM
      1 C          62.6757   90.4593   11.0636 C.3     1  UNL1        0.0678
      2 C          62.7093   90.4032   12.5621 C.2     1  UNL1        0.1889
      3 O          61.5783   89.7671   13.3144 O.2     1  UNL1       -0.2898
      4 C          63.8740   90.9833   13.3084 C.ar    1  UNL1        0.0989
      5 C          64.6030   92.2473   12.9605 C.ar    1  UNL1        0.0219
      6 C          65.6938   92.4464   13.9707 C.ar    1  UNL1        0.0185
      7 C          66.7298   93.5193   14.1309 C.ar    1  UNL1        0.0129
      8 C          67.7110   93.4511   15.2633 C.ar    1  UNL1        0.0578
      9 CL         68.7471   94.5240   15.4235 Cl      1  UNL1       -0.0822
     10 C          67.6563   92.3102   16.2356 C.ar    1  UNL1        0.0129
     11 C          66.6203   91.2374   16.0754 C.ar    1  UNL1        0.0184
     12 C          65.6390   91.3055   14.9430 C.ar    1  UNL1        0.0641
     13 N          64.5144   90.4013   14.5337 N.ar    1  UNL1       -0.3038
     14 C          64.1024   89.1369   15.2277 C.ar    1  UNL1        0.0640
     15 C          63.2697   89.2025   16.4738 C.ar    1  UNL1        0.0175
     16 C          62.8578   87.9381   17.1679 C.ar    1  UNL1        0.0014
     17 C          63.2784   86.6083   16.6160 C.ar    1  UNL1        0.0039
     18 C          64.1110   86.5428   15.3700 C.ar    1  UNL1        0.0729
     19 C          64.5230   87.8071   14.6759 C.ar    1  UNL1        0.0214
     20 C          64.5317   85.2130   14.8182 C.3     1  UNL1        0.4186
     21 F          64.9523   83.8831   14.2663 F       1  UNL1       -0.1659
     22 F          63.0995   84.7676   14.7997 F       1  UNL1       -0.1659
     23 F          65.9639   85.6584   14.8366 F       1  UNL1       -0.1659
     24 C          63.4021   91.5525   10.3374 C.3     1  UNL1        0.0081
     25 C          64.8749   91.4316   10.0794 C.3     1  UNL1        0.0005
     26 C          65.7628   92.6316   10.2253 C.3     1  UNL1        0.0000
     27 C          68.2118   92.3904    9.3920 C.3     1  UNL1        0.0000
     28 C          67.2230   92.4530   10.5182 C.3     1  UNL1        0.0000
     29 C          61.9156   89.4222   10.2911 C.3     1  UNL1        0.0341
     30 C          62.2802   87.9730   10.4216 C.ar    1  UNL1       -0.0217
     31 C          62.6228   87.4040   11.7666 C.ar    1  UNL1       -0.0041
     32 C          62.9874   85.9549   11.8970 C.ar    1  UNL1        0.0042
     33 C          63.0094   85.0747   10.6826 C.ar    1  UNL1        0.0533
     34 C          62.6669   85.6437    9.3377 C.ar    1  UNL1        0.0042
     35 C          62.3022   87.0929    9.2071 C.ar    1  UNL1       -0.0041
     36 C          63.3740   83.6256   10.8131 C.2     1  UNL1        0.2459
     37 O          64.4881   83.0551    9.9864 O.2     1  UNL1       -0.2701
     38 N          62.6245   82.7469   11.7702 N.am    1  UNL1       -0.3005
     39 H          61.8932   83.1213   12.3128 H       1  UNL1        0.1498
     40 C          62.9890   81.2977   11.9007 C.3     1  UNL1        0.0956
     41 C          62.3691   80.4628   12.9817 C.3     1  UNL1        0.0629
     42 C          61.5902   81.1193   14.0828 C.2     1  UNL1        0.0520
     43 O          60.1691   80.7144   14.3407 O.co2   1  UNL1       -0.5491
     44 O          62.2324   82.1807   14.9260 O.co2   1  UNL1       -0.5491
@<TRIPOS>UNITY_ATOM_ATTR
43 1
charge -1
@<TRIPOS>BOND
     1    27    28    1
     2    28    26    1
     3    26    25    1
     4    25    24    1
     5     1    24    1
     6     1    29    1
     7    29    30    1
     8    30    31   ar
     9    31    32   ar
    10    32    33   ar
    11    33    36    1
    12    36    37    2
    13    36    38   am
    14    38    40    1
    15    40    41    1
    16    41    42    1
    17    42    43   ar
    18    42    44   ar
    19    33    34   ar
    20    34    35   ar
    21     1     2    1
    22     2     3    2
    23     2     4    1
    24     4     5   ar
    25     5     6   ar
    26     6     7   ar
    27     7     8   ar
    28     8     9    1
    29     8    10   ar
    30    10    11   ar
    31    11    12   ar
    32    12    13   ar
    33    13    14    1
    34    14    15   ar
    35    15    16   ar
    36    16    17   ar
    37    17    18   ar
    38    18    20    1
    39    20    21    1
    40    20    22    1
    41    20    23    1
    42    18    19   ar
    43    35    30   ar
    44    13     4   ar
    45    19    14   ar
    46    12     6   ar
    47    38    39    1
@<TRIPOS>MOLECULE
*****
 44 47 0 0 0
SMALL
GASTEIGER

@<TRIPOS>ATOM
      1 C          63.5275   87.6479   14.3270 C.3     1  UNL1        0.0678
      2 C          63.5986   86.6264   13.2309 C.2     1  UNL1        0.1889
      3 O          64.4943   85.4320   13.3758 O.2     1  UNL1       -0.2898
      4 C          62.7739   86.7993   11.9899 C.ar    1  UNL1        0.0989
      5 C          62.1805   88.0860   11.4979 C.ar    1  UNL1        0.0219
      6 C          61.4377   87.7979   10.2269 C.ar    1  UNL1        0.0185
      7 C          60.6563   88.6801    9.2990 C.ar    1  UNL1        0.0129
      8 C          60.0094   88.0974    8.0776 C.ar    1  UNL1        0.0578
      9 CL         59.2280   88.9796    7.1495 Cl      1  UNL1       -0.0822
     10 C          60.1438   86.6325    7.7841 C.ar    1  UNL1        0.0129
     11 C          60.9251   85.7503    8.7121 C.ar    1  UNL1        0.0184
     12 C          61.5721   86.3330    9.9335 C.ar    1  UNL1        0.0641
     13 N          62.3979   85.7159   11.0231 N.ar    1  UNL1       -0.3038
     14 C          62.7805   84.2693   11.1274 C.ar    1  UNL1        0.0640
     15 C          63.7905   83.6904   10.1813 C.ar    1  UNL1        0.0175
     16 C          64.1731   82.2438   10.2857 C.ar    1  UNL1        0.0014
     17 C          63.5459   81.3760   11.3361 C.ar    1  UNL1        0.0039
     18 C          62.5360   81.9548   12.2822 C.ar    1  UNL1        0.0729
     19 C          62.1534   83.4014   12.1778 C.ar    1  UNL1        0.0214
     20 C          61.9088   81.0870   13.3327 C.3     1  UNL1        0.4186
     21 F          61.2816   80.2192   14.3832 F       1  UNL1       -0.1659
     22 F          62.4847   79.8701   12.6713 F       1  UNL1       -0.1659
     23 F          61.3329   82.3039   13.9941 F       1  UNL1       -0.1659
     24 C          64.1091   87.3426   15.6755 C.3     1  UNL1        0.0081
     25 C          63.2108   87.2294   16.8715 C.3     1  UNL1        0.0005
     26 C          62.6297   85.8993   17.2498 C.3     1  UNL1        0.0000
     27 C          63.2202   83.7848   15.8605 C.3     1  UNL1        0.0000
     28 C          62.2763   84.9048   16.1840 C.3     1  UNL1        0.0000
     29 C          62.8749   88.9747   14.0746 C.3     1  UNL1        0.0341
     30 C          63.6544   90.0839   13.4327 C.ar    1  UNL1       -0.0217
     31 C          63.1953   90.6662   12.1287 C.ar    1  UNL1       -0.0041
     32 C          63.9748   91.7754   11.4869 C.ar    1  UNL1        0.0042
     33 C          65.2133   92.3024   12.1489 C.ar    1  UNL1        0.0533
     34 C          65.6724   91.7201   13.4528 C.ar    1  UNL1        0.0042
     35 C          64.8929   90.6109   14.0947 C.ar    1  UNL1       -0.0041
     36 C          65.9928   93.4116   11.5070 C.2     1  UNL1        0.2459
     37 O          66.8486   94.3113   12.3485 O.2     1  UNL1       -0.2701
     38 N          65.9164   93.6211   10.0237 N.am    1  UNL1       -0.3005
     39 H          65.3547   93.0306    9.4714 H       1  UNL1        0.1498
     40 C          66.6959   94.7303    9.3818 C.3     1  UNL1        0.0956
     41 C          68.0453   94.4529    8.7885 C.3     1  UNL1        0.0629
     42 C          68.6837   93.1080    8.9730 C.2     1  UNL1        0.0520
     43 O          68.9728   92.5982   10.3538 O.co2   1  UNL1       -0.5491
     44 O          69.0328   92.2731    7.7769 O.co2   1  UNL1       -0.5491
@<TRIPOS>UNITY_ATOM_ATTR
43 1
charge -1
@<TRIPOS>BOND
     1    27    28    1
     2    28    26    1
     3    26    25    1
     4    25    24    1
     5     1    24    1
     6     1    29    1
     7    29    30    1
     8    30    31   ar
     9    31    32   ar
    10    32    33   ar
    11    33    36    1
    12    36    37    2
    13    36    38   am
    14    38    40    1
    15    40    41    1
    16    41    42    1
    17    42    43   ar
    18    42    44   ar
    19    33    34   ar
    20    34    35   ar
    21     1     2    1
    22     2     3    2
    23     2     4    1
    24     4     5   ar
    25     5     6   ar
    26     6     7   ar
    27     7     8   ar
    28     8     9    1
    29     8    10   ar
    30    10    11   ar
    31    11    12   ar
    32    12    13   ar
    33    13    14    1
    34    14    15   ar
    35    15    16   ar
    36    16    17   ar
    37    17    18   ar
    38    18    20    1
    39    20    21    1
    40    20    22    1
    41    20    23    1
    42    18    19   ar
    43    35    30   ar
    44    13     4   ar
    45    19    14   ar
    46    12     6   ar
    47    38    39    1
