@<TRIPOS>MOLECULE
*****
 31 32 0 0 0
SMALL
GASTEIGER

@<TRIPOS>ATOM
      1 C          62.6388   81.6067   12.8484 C.3     1  UNL1        0.0077
      2 C          63.1789   81.5131   11.4521 C.3     1  UNL1        0.0475
      3 C          64.2569   82.4532   11.0004 C.3     1  UNL1        0.2054
      4 O          64.0077   83.3828    9.8498 O.3     1  UNL1       -0.4755
      5 C          61.3389   86.9656   10.3891 C.ar    1  UNL1        0.0815
      6 C          61.6865   86.1052   11.5676 C.ar    1  UNL1        0.0105
      7 C          62.5761   84.9109   11.3878 C.ar    1  UNL1        0.0371
      8 C          63.1181   84.5771   10.0296 C.ar    1  UNL1        0.1386
      9 C          62.7705   85.4375    8.8512 C.ar    1  UNL1        0.0371
     10 C          61.8809   86.6318    9.0309 C.ar    1  UNL1        0.0105
     11 N          60.4011   89.2248    9.5136 N.2     1  UNL1       -0.0994
     12 C          60.4493   88.1599   10.5689 C.2     1  UNL1        0.3093
     13 N          59.6080   88.2894   11.8040 N.pl3   1  UNL1       -0.2466
     14 H          59.8172   90.0087    9.6316 H       1  UNL1        0.3633
     15 H          59.0242   89.0732   11.9219 H       1  UNL1        0.2884
     16 H          59.6397   87.5904   12.4966 H       1  UNL1        0.2884
     17 C          63.4890   82.1768   13.9448 C.3     1  UNL1        0.0475
     18 C          62.9662   83.2976   14.7935 C.3     1  UNL1        0.2054
     19 O          63.9117   84.1128   15.6250 O.3     1  UNL1       -0.4755
     20 C          63.7998   85.6086   15.6389 C.ar    1  UNL1        0.1386
     21 C          64.2987   86.4088   14.4724 C.ar    1  UNL1        0.0371
     22 C          64.1867   87.9045   14.4863 C.ar    1  UNL1        0.0105
     23 C          63.5759   88.6000   15.6666 C.ar    1  UNL1        0.0815
     24 C          63.0771   87.7998   16.8331 C.ar    1  UNL1        0.0105
     25 C          63.1890   86.3041   16.8192 C.ar    1  UNL1        0.0371
     26 C          63.4640   90.0958   15.6805 C.2     1  UNL1        0.3093
     27 N          63.4725   90.8365   16.9848 N.2     1  UNL1       -0.0994
     28 N          63.3437   90.8509   14.3900 N.pl3   1  UNL1       -0.2466
     29 H          63.5515   90.3409   17.8318 H       1  UNL1        0.3633
     30 H          63.3382   90.3648   13.5339 H       1  UNL1        0.2884
     31 H          63.2702   91.8326   14.3991 H       1  UNL1        0.2884
@<TRIPOS>BOND
     1    11    12    2
     2    12    13    1
     3    12     5    1
     4     5     6   ar
     5     6     7   ar
     6     7     8   ar
     7     8     4    1
     8     4     3    1
     9     3     2    1
    10     2     1    1
    11     1    17    1
    12    17    18    1
    13    18    19    1
    14    19    20    1
    15    20    21   ar
    16    21    22   ar
    17    22    23   ar
    18    23    26    1
    19    26    27    2
    20    26    28    1
    21    23    24   ar
    22    24    25   ar
    23     8     9   ar
    24     9    10   ar
    25    10     5   ar
    26    25    20   ar
    27    11    14    1
    28    13    15    1
    29    13    16    1
    30    27    29    1
    31    28    30    1
    32    28    31    1
@<TRIPOS>MOLECULE
*****
 31 32 0 0 0
SMALL
GASTEIGER

@<TRIPOS>ATOM
      1 C          62.4753   81.7085   13.1666 C.3     1  UNL1        0.0077
      2 C          63.4157   82.2350   14.2100 C.3     1  UNL1        0.0475
      3 C          62.9752   83.3345   15.1304 C.3     1  UNL1        0.2054
      4 O          63.9962   84.1991   15.8086 O.3     1  UNL1       -0.4755
      5 C          63.6089   88.6798   15.6558 C.ar    1  UNL1        0.0815
      6 C          64.3411   87.9527   14.5671 C.ar    1  UNL1        0.0105
      7 C          64.4702   86.4592   14.6181 C.ar    1  UNL1        0.0371
      8 C          63.8671   85.6927   15.7576 C.ar    1  UNL1        0.1386
      9 C          63.1349   86.4197   16.8463 C.ar    1  UNL1        0.0371
     10 C          63.0058   87.9133   16.7953 C.ar    1  UNL1        0.0105
     11 N          63.5558   90.9763   16.8695 N.2     1  UNL1       -0.0994
     12 C          63.4798   90.1734   15.6048 C.2     1  UNL1        0.3093
     13 N          63.2747   90.8640   14.2892 N.pl3   1  UNL1       -0.2466
     14 H          63.4711   91.9566   16.8361 H       1  UNL1        0.3633
     15 H          63.1900   91.8443   14.2558 H       1  UNL1        0.2884
     16 H          63.2248   90.3370   13.4591 H       1  UNL1        0.2884
     17 C          62.9217   81.6051   11.7383 C.3     1  UNL1        0.0475
     18 C          64.1884   82.2770   11.2979 C.3     1  UNL1        0.2054
     19 O          64.1630   83.2528   10.1589 O.3     1  UNL1       -0.4755
     20 C          63.2345   84.4301   10.2006 C.ar    1  UNL1        0.1386
     21 C          62.9204   85.1825    8.9415 C.ar    1  UNL1        0.0371
     22 C          61.9919   86.3598    8.9832 C.ar    1  UNL1        0.0105
     23 C          61.3775   86.7848   10.2840 C.ar    1  UNL1        0.0815
     24 C          61.6916   86.0324   11.5430 C.ar    1  UNL1        0.0105
     25 C          62.6201   84.8551   11.5013 C.ar    1  UNL1        0.0371
     26 C          60.4490   87.9622   10.3256 C.2     1  UNL1        0.3093
     27 N          60.2642   88.8151    9.1057 N.2     1  UNL1       -0.0994
     28 N          59.7053   88.2866   11.5872 N.pl3   1  UNL1       -0.2466
     29 H          60.7524   88.6022    8.2776 H       1  UNL1        0.3633
     30 H          59.8265   87.7267   12.3879 H       1  UNL1        0.2884
     31 H          59.0959   89.0593   11.6145 H       1  UNL1        0.2884
@<TRIPOS>BOND
     1    11    12    2
     2    12    13    1
     3    12     5    1
     4     5     6   ar
     5     6     7   ar
     6     7     8   ar
     7     8     4    1
     8     4     3    1
     9     3     2    1
    10     2     1    1
    11     1    17    1
    12    17    18    1
    13    18    19    1
    14    19    20    1
    15    20    21   ar
    16    21    22   ar
    17    22    23   ar
    18    23    26    1
    19    26    27    2
    20    26    28    1
    21    23    24   ar
    22    24    25   ar
    23     8     9   ar
    24     9    10   ar
    25    10     5   ar
    26    25    20   ar
    27    11    14    1
    28    13    15    1
    29    13    16    1
    30    27    29    1
    31    28    30    1
    32    28    31    1
@<TRIPOS>MOLECULE
*****
 31 32 0 0 0
SMALL
GASTEIGER

@<TRIPOS>ATOM
      1 C          64.0303   88.9998   15.3781 C.3     1  UNL1        0.0077
      2 C          63.7825   90.0451   14.3311 C.3     1  UNL1        0.0475
      3 C          63.3170   89.6413   12.9636 C.3     1  UNL1        0.2054
      4 O          63.3611   88.1997   12.5516 O.3     1  UNL1       -0.4755
      5 C          60.7837   86.7489    9.1601 C.ar    1  UNL1        0.0815
      6 C          61.0981   88.2097    9.2914 C.ar    1  UNL1        0.0105
      7 C          61.9573   88.6933   10.4219 C.ar    1  UNL1        0.0371
      8 C          62.5020   87.7161   11.4211 C.ar    1  UNL1        0.1386
      9 C          62.1875   86.2554   11.2898 C.ar    1  UNL1        0.0371
     10 C          61.3283   85.7718   10.1593 C.ar    1  UNL1        0.0105
     11 N          58.5124   86.7538    7.8987 N.2     1  UNL1       -0.0994
     12 C          59.9245   86.2653    8.0296 C.2     1  UNL1        0.3093
     13 N          60.4775   85.2932    7.0301 N.pl3   1  UNL1       -0.2466
     14 H          57.9485   86.4364    7.1567 H       1  UNL1        0.3633
     15 H          59.9136   84.9758    6.2881 H       1  UNL1        0.2884
     16 H          61.4043   84.9725    7.1160 H       1  UNL1        0.2884
     17 C          63.1428   88.9218   16.5848 C.3     1  UNL1        0.0475
     18 C          62.5937   87.5981   17.0277 C.3     1  UNL1        0.2054
     19 O          63.4854   86.3927   17.0705 O.3     1  UNL1       -0.4755
     20 C          63.5428   85.4601   15.8969 C.ar    1  UNL1        0.1386
     21 C          62.4501   84.4550   15.6836 C.ar    1  UNL1        0.0371
     22 C          62.5075   83.5225   14.5101 C.ar    1  UNL1        0.0105
     23 C          63.6576   83.5952   13.5500 C.ar    1  UNL1        0.0815
     24 C          64.7504   84.6003   13.7633 C.ar    1  UNL1        0.0105
     25 C          64.6929   85.5328   14.9368 C.ar    1  UNL1        0.0371
     26 C          63.7150   82.6626   12.3764 C.2     1  UNL1        0.3093
     27 N          64.9532   82.5945   11.5325 N.2     1  UNL1       -0.0994
     28 N          62.5343   81.7983   12.0468 N.pl3   1  UNL1       -0.2466
     29 H          65.7282   83.1618   11.7488 H       1  UNL1        0.3633
     30 H          61.7216   81.8430   12.6007 H       1  UNL1        0.2884
     31 H          62.5719   81.1863   11.2766 H       1  UNL1        0.2884
@<TRIPOS>BOND
     1    11    12    2
     2    12    13    1
     3    12     5    1
     4     5     6   ar
     5     6     7   ar
     6     7     8   ar
     7     8     4    1
     8     4     3    1
     9     3     2    1
    10     2     1    1
    11     1    17    1
    12    17    18    1
    13    18    19    1
    14    19    20    1
    15    20    21   ar
    16    21    22   ar
    17    22    23   ar
    18    23    26    1
    19    26    27    2
    20    26    28    1
    21    23    24   ar
    22    24    25   ar
    23     8     9   ar
    24     9    10   ar
    25    10     5   ar
    26    25    20   ar
    27    11    14    1
    28    13    15    1
    29    13    16    1
    30    27    29    1
    31    28    30    1
    32    28    31    1
@<TRIPOS>MOLECULE
*****
 31 32 0 0 0
SMALL
GASTEIGER

@<TRIPOS>ATOM
      1 C          60.1802   87.5832    9.0708 C.3     1  UNL1        0.0077
      2 C          60.9398   86.4116    8.5227 C.3     1  UNL1        0.0475
      3 C          62.4287   86.3385    8.6899 C.3     1  UNL1        0.2054
      4 O          63.0931   85.0141    8.9227 O.3     1  UNL1       -0.4755
      5 C          63.3430   83.3230   13.0854 C.ar    1  UNL1        0.0815
      6 C          64.0709   82.6522   11.9584 C.ar    1  UNL1        0.0105
      7 C          63.9876   83.2159   10.5708 C.ar    1  UNL1        0.0371
      8 C          63.1764   84.4504   10.3103 C.ar    1  UNL1        0.1386
      9 C          62.4486   85.1212   11.4373 C.ar    1  UNL1        0.0371
     10 C          62.5319   84.5575   12.8248 C.ar    1  UNL1        0.0105
     11 N          62.4331   81.7304   14.9253 N.2     1  UNL1       -0.0994
     12 C          63.4263   82.7593   14.4729 C.2     1  UNL1        0.3093
     13 N          64.5029   83.2245   15.4081 N.pl3   1  UNL1       -0.2466
     14 H          62.4878   81.3604   15.8360 H       1  UNL1        0.3633
     15 H          64.5576   82.8545   16.3188 H       1  UNL1        0.2884
     16 H          65.1548   83.8998   15.1112 H       1  UNL1        0.2884
     17 C          60.2401   87.8967   10.5364 C.3     1  UNL1        0.0475
     18 C          61.1806   88.9511   11.0401 C.3     1  UNL1        0.2054
     19 O          62.0579   88.6701   12.2238 O.3     1  UNL1       -0.4755
     20 C          63.1459   89.6332   12.5964 C.ar    1  UNL1        0.1386
     21 C          63.4354   90.8141   11.7181 C.ar    1  UNL1        0.0371
     22 C          64.5233   91.7771   12.0908 C.ar    1  UNL1        0.0105
     23 C          65.3218   91.5592   13.3417 C.ar    1  UNL1        0.0815
     24 C          65.0324   90.3782   14.2200 C.ar    1  UNL1        0.0105
     25 C          63.9444   89.4152   13.8474 C.ar    1  UNL1        0.0371
     26 C          66.4098   92.5223   13.7143 C.2     1  UNL1        0.3093
     27 N          66.1088   93.6806   14.6186 N.2     1  UNL1       -0.0994
     28 N          67.7987   92.3270   13.1826 N.pl3   1  UNL1       -0.2466
     29 H          65.1972   93.8087   14.9676 H       1  UNL1        0.3633
     30 H          67.9963   91.5668   12.5891 H       1  UNL1        0.2884
     31 H          68.5128   92.9591   13.4272 H       1  UNL1        0.2884
@<TRIPOS>BOND
     1    11    12    2
     2    12    13    1
     3    12     5    1
     4     5     6   ar
     5     6     7   ar
     6     7     8   ar
     7     8     4    1
     8     4     3    1
     9     3     2    1
    10     2     1    1
    11     1    17    1
    12    17    18    1
    13    18    19    1
    14    19    20    1
    15    20    21   ar
    16    21    22   ar
    17    22    23   ar
    18    23    26    1
    19    26    27    2
    20    26    28    1
    21    23    24   ar
    22    24    25   ar
    23     8     9   ar
    24     9    10   ar
    25    10     5   ar
    26    25    20   ar
    27    11    14    1
    28    13    15    1
    29    13    16    1
    30    27    29    1
    31    28    30    1
    32    28    31    1
@<TRIPOS>MOLECULE
*****
 31 32 0 0 0
SMALL
GASTEIGER

@<TRIPOS>ATOM
      1 C          63.5614   89.7896   15.5360 C.3     1  UNL1        0.0077
      2 C          63.2218   88.5510   16.3110 C.3     1  UNL1        0.0475
      3 C          63.8615   87.2427   15.9520 C.3     1  UNL1        0.2054
      4 O          63.1198   85.9584   16.1767 O.3     1  UNL1       -0.4755
      5 C          63.1531   82.7577   13.0138 C.ar    1  UNL1        0.0815
      6 C          63.8465   84.0644   12.7658 C.ar    1  UNL1        0.0105
      7 C          63.8354   85.1314   13.8201 C.ar    1  UNL1        0.0371
      8 C          63.1309   84.8915   15.1224 C.ar    1  UNL1        0.1386
      9 C          62.4375   83.5848   15.3705 C.ar    1  UNL1        0.0371
     10 C          62.4486   82.5178   14.3162 C.ar    1  UNL1        0.0105
     11 N          62.6941   80.3051   12.2897 N.2     1  UNL1       -0.0994
     12 C          63.1642   81.6907   11.9595 C.2     1  UNL1        0.3093
     13 N          63.6454   82.0094   10.5750 N.pl3   1  UNL1       -0.2466
     14 H          62.7014   79.6049   11.5977 H       1  UNL1        0.3633
     15 H          63.6527   81.3092    9.8831 H       1  UNL1        0.2884
     16 H          63.9540   82.9188   10.3583 H       1  UNL1        0.2884
     17 C          64.2730   89.6794   14.2201 C.3     1  UNL1        0.0475
     18 C          63.4852   89.5839   12.9472 C.3     1  UNL1        0.2054
     19 O          63.2352   88.2451   12.3186 O.3     1  UNL1       -0.4755
     20 C          62.2515   88.1168   11.1934 C.ar    1  UNL1        0.1386
     21 C          61.8260   89.3339   10.4268 C.ar    1  UNL1        0.0371
     22 C          60.8423   89.2056    9.3017 C.ar    1  UNL1        0.0105
     23 C          60.2842   87.8602    8.9432 C.ar    1  UNL1        0.0815
     24 C          60.7097   86.6432    9.7098 C.ar    1  UNL1        0.0105
     25 C          61.6934   86.7715   10.8349 C.ar    1  UNL1        0.0371
     26 C          59.3005   87.7319    7.8181 C.2     1  UNL1        0.3093
     27 N          58.5321   86.4567    7.6354 N.2     1  UNL1       -0.0994
     28 N          59.0852   88.8789    6.8757 N.pl3   1  UNL1       -0.2466
     29 H          58.6734   85.7039    8.2539 H       1  UNL1        0.3633
     30 H          59.5895   89.7159    6.9956 H       1  UNL1        0.2884
     31 H          58.4396   88.7947    6.1372 H       1  UNL1        0.2884
@<TRIPOS>BOND
     1    11    12    2
     2    12    13    1
     3    12     5    1
     4     5     6   ar
     5     6     7   ar
     6     7     8   ar
     7     8     4    1
     8     4     3    1
     9     3     2    1
    10     2     1    1
    11     1    17    1
    12    17    18    1
    13    18    19    1
    14    19    20    1
    15    20    21   ar
    16    21    22   ar
    17    22    23   ar
    18    23    26    1
    19    26    27    2
    20    26    28    1
    21    23    24   ar
    22    24    25   ar
    23     8     9   ar
    24     9    10   ar
    25    10     5   ar
    26    25    20   ar
    27    11    14    1
    28    13    15    1
    29    13    16    1
    30    27    29    1
    31    28    30    1
    32    28    31    1
@<TRIPOS>MOLECULE
*****
 31 32 0 0 0
SMALL
GASTEIGER

@<TRIPOS>ATOM
      1 C          59.8167   88.5710    8.2375 C.3     1  UNL1        0.0077
      2 C          60.2823   89.3873    9.4067 C.3     1  UNL1        0.0475
      3 C          61.6693   89.2010    9.9466 C.3     1  UNL1        0.2054
      4 O          61.9099   89.2434   11.4266 O.3     1  UNL1       -0.4755
      5 C          65.2953   91.7001   13.0862 C.ar    1  UNL1        0.0815
      6 C          64.7433   90.5519   13.8780 C.ar    1  UNL1        0.0105
      7 C          63.6149   89.7330   13.3248 C.ar    1  UNL1        0.0371
      8 C          63.0384   90.0623   11.9798 C.ar    1  UNL1        0.1386
      9 C          63.5903   91.2105   11.1879 C.ar    1  UNL1        0.0371
     10 C          64.7187   92.0294   11.7411 C.ar    1  UNL1        0.0105
     11 N          66.1322   93.7270   14.4794 N.2     1  UNL1       -0.0994
     12 C          66.4237   92.5190   13.6394 C.2     1  UNL1        0.3093
     13 N          67.8436   92.1299   13.3525 N.pl3   1  UNL1       -0.2466
     14 H          66.8728   94.2644   14.8425 H       1  UNL1        0.3633
     15 H          68.5843   92.6674   13.7156 H       1  UNL1        0.2884
     16 H          68.0350   91.3371   12.8011 H       1  UNL1        0.2884
     17 C          59.4638   87.1252    8.4252 C.3     1  UNL1        0.0475
     18 C          60.3673   86.0565    7.8853 C.3     1  UNL1        0.2054
     19 O          61.8408   86.1104    8.1607 O.3     1  UNL1       -0.4755
     20 C          62.4122   85.3696    9.3332 C.ar    1  UNL1        0.1386
     21 C          63.4448   84.3035    9.1160 C.ar    1  UNL1        0.0371
     22 C          64.0161   83.5627   10.2885 C.ar    1  UNL1        0.0105
     23 C          63.5549   83.8881   11.6782 C.ar    1  UNL1        0.0815
     24 C          62.5223   84.9542   11.8955 C.ar    1  UNL1        0.0105
     25 C          61.9510   85.6949   10.7230 C.ar    1  UNL1        0.0371
     26 C          64.1263   83.1473   12.8508 C.2     1  UNL1        0.3093
     27 N          65.0012   83.8636   13.8364 N.2     1  UNL1       -0.0994
     28 N          63.8228   81.6903   13.0376 N.pl3   1  UNL1       -0.2466
     29 H          65.2004   84.8199   13.7138 H       1  UNL1        0.3633
     30 H          63.2485   81.2202   12.3907 H       1  UNL1        0.2884
     31 H          64.1978   81.2041   13.8072 H       1  UNL1        0.2884
@<TRIPOS>BOND
     1    11    12    2
     2    12    13    1
     3    12     5    1
     4     5     6   ar
     5     6     7   ar
     6     7     8   ar
     7     8     4    1
     8     4     3    1
     9     3     2    1
    10     2     1    1
    11     1    17    1
    12    17    18    1
    13    18    19    1
    14    19    20    1
    15    20    21   ar
    16    21    22   ar
    17    22    23   ar
    18    23    26    1
    19    26    27    2
    20    26    28    1
    21    23    24   ar
    22    24    25   ar
    23     8     9   ar
    24     9    10   ar
    25    10     5   ar
    26    25    20   ar
    27    11    14    1
    28    13    15    1
    29    13    16    1
    30    27    29    1
    31    28    30    1
    32    28    31    1
@<TRIPOS>MOLECULE
*****
 31 32 0 0 0
SMALL
GASTEIGER

@<TRIPOS>ATOM
      1 C          60.5327   86.4666    8.9381 C.3     1  UNL1        0.0077
      2 C          60.8677   87.9138    9.1472 C.3     1  UNL1        0.0475
      3 C          61.8923   88.3062   10.1700 C.3     1  UNL1        0.2054
      4 O          61.6626   89.5067   11.0394 O.3     1  UNL1       -0.4755
      5 C          65.1052   92.1978   12.1149 C.ar    1  UNL1        0.0815
      6 C          64.5461   92.2152   10.7232 C.ar    1  UNL1        0.0105
      7 C          63.3985   91.3182   10.3647 C.ar    1  UNL1        0.0371
      8 C          62.8101   90.4038   11.3979 C.ar    1  UNL1        0.1386
      9 C          63.3693   90.3864   12.7897 C.ar    1  UNL1        0.0371
     10 C          64.5168   91.2834   13.1482 C.ar    1  UNL1        0.0105
     11 N          66.0697   94.5835   12.4725 N.2     1  UNL1       -0.0994
     12 C          66.2527   93.0948   12.4735 C.2     1  UNL1        0.3093
     13 N          67.5833   92.5030   12.8329 N.pl3   1  UNL1       -0.2466
     14 H          66.8228   95.1723   12.7078 H       1  UNL1        0.3633
     15 H          68.3365   93.0918   13.0682 H       1  UNL1        0.2884
     16 H          67.7035   91.5259   12.8336 H       1  UNL1        0.2884
     17 C          61.0437   85.7461    7.7258 C.3     1  UNL1        0.0475
     18 C          62.3545   85.0190    7.7825 C.3     1  UNL1        0.2054
     19 O          63.3256   85.3086    8.8884 O.3     1  UNL1       -0.4755
     20 C          63.2886   84.4985   10.1503 C.ar    1  UNL1        0.1386
     21 C          62.6564   85.0650   11.3870 C.ar    1  UNL1        0.0371
     22 C          62.6194   84.2548   12.6488 C.ar    1  UNL1        0.0105
     23 C          63.2146   82.8782   12.6740 C.ar    1  UNL1        0.0815
     24 C          63.8467   82.3117   11.4373 C.ar    1  UNL1        0.0105
     25 C          63.8837   83.1218   10.1755 C.ar    1  UNL1        0.0371
     26 C          63.1776   82.0680   13.9359 C.2     1  UNL1        0.3093
     27 N          62.7170   82.6967   15.2175 N.2     1  UNL1       -0.0994
     28 N          63.6011   80.6292   13.9161 N.pl3   1  UNL1       -0.2466
     29 H          62.4390   83.6410   15.2305 H       1  UNL1        0.3633
     30 H          63.9034   80.2166   13.0749 H       1  UNL1        0.2884
     31 H          63.5768   80.0975   14.7443 H       1  UNL1        0.2884
@<TRIPOS>BOND
     1    11    12    2
     2    12    13    1
     3    12     5    1
     4     5     6   ar
     5     6     7   ar
     6     7     8   ar
     7     8     4    1
     8     4     3    1
     9     3     2    1
    10     2     1    1
    11     1    17    1
    12    17    18    1
    13    18    19    1
    14    19    20    1
    15    20    21   ar
    16    21    22   ar
    17    22    23   ar
    18    23    26    1
    19    26    27    2
    20    26    28    1
    21    23    24   ar
    22    24    25   ar
    23     8     9   ar
    24     9    10   ar
    25    10     5   ar
    26    25    20   ar
    27    11    14    1
    28    13    15    1
    29    13    16    1
    30    27    29    1
    31    28    30    1
    32    28    31    1
@<TRIPOS>MOLECULE
*****
 31 32 0 0 0
SMALL
GASTEIGER

@<TRIPOS>ATOM
      1 C          64.8027   85.7938   14.9001 C.3     1  UNL1        0.0077
      2 C          64.2371   84.5601   14.2611 C.3     1  UNL1        0.0475
      3 C          63.0842   84.6705   13.3079 C.3     1  UNL1        0.2054
      4 O          63.3317   84.6717   11.8285 O.3     1  UNL1       -0.4755
      5 C          60.6699   87.0679    9.1039 C.ar    1  UNL1        0.0815
      6 C          60.5491   87.2168   10.5916 C.ar    1  UNL1        0.0105
      7 C          61.4364   86.4181   11.4998 C.ar    1  UNL1        0.0371
      8 C          62.4444   85.4704   10.9203 C.ar    1  UNL1        0.1386
      9 C          62.5652   85.3215    9.4326 C.ar    1  UNL1        0.0371
     10 C          61.6779   86.1203    8.5244 C.ar    1  UNL1        0.0105
     11 N          58.6880   87.1864    7.4282 N.2     1  UNL1       -0.0994
     12 C          59.7826   87.8666    8.1957 C.2     1  UNL1        0.3093
     13 N          59.9900   89.3455    8.0550 N.pl3   1  UNL1       -0.2466
     14 H          58.1056   87.7107    6.8322 H       1  UNL1        0.3633
     15 H          59.4076   89.8697    7.4589 H       1  UNL1        0.2884
     16 H          60.7084   89.7919    8.5587 H       1  UNL1        0.2884
     17 C          64.3389   87.1490   14.4548 C.3     1  UNL1        0.0475
     18 C          63.8142   88.1301   15.4608 C.3     1  UNL1        0.2054
     19 O          63.1713   89.4048   15.0006 O.3     1  UNL1       -0.4755
     20 C          63.9436   90.3700   14.1508 C.ar    1  UNL1        0.1386
     21 C          65.1364   91.0807   14.7182 C.ar    1  UNL1        0.0371
     22 C          65.9086   92.0459   13.8684 C.ar    1  UNL1        0.0105
     23 C          65.4880   92.3003   12.4513 C.ar    1  UNL1        0.0815
     24 C          64.2951   91.5896   11.8839 C.ar    1  UNL1        0.0105
     25 C          63.5229   90.6244   12.7336 C.ar    1  UNL1        0.0371
     26 C          66.2603   93.2655   11.6015 C.2     1  UNL1        0.3093
     27 N          65.7720   94.6738   11.4335 N.2     1  UNL1       -0.0994
     28 N          67.5207   92.8224   10.9198 N.pl3   1  UNL1       -0.2466
     29 H          64.9447   94.9647   11.8809 H       1  UNL1        0.3633
     30 H          67.8412   91.8980   11.0300 H       1  UNL1        0.2884
     31 H          68.0276   93.4559   10.3620 H       1  UNL1        0.2884
@<TRIPOS>BOND
     1    11    12    2
     2    12    13    1
     3    12     5    1
     4     5     6   ar
     5     6     7   ar
     6     7     8   ar
     7     8     4    1
     8     4     3    1
     9     3     2    1
    10     2     1    1
    11     1    17    1
    12    17    18    1
    13    18    19    1
    14    19    20    1
    15    20    21   ar
    16    21    22   ar
    17    22    23   ar
    18    23    26    1
    19    26    27    2
    20    26    28    1
    21    23    24   ar
    22    24    25   ar
    23     8     9   ar
    24     9    10   ar
    25    10     5   ar
    26    25    20   ar
    27    11    14    1
    28    13    15    1
    29    13    16    1
    30    27    29    1
    31    28    30    1
    32    28    31    1
@<TRIPOS>MOLECULE
*****
 31 32 0 0 0
SMALL
GASTEIGER

@<TRIPOS>ATOM
      1 C          62.7610   90.5682   10.3488 C.3     1  UNL1        0.0077
      2 C          61.4952   89.7639   10.3806 C.3     1  UNL1        0.0475
      3 C          61.0151   89.0715    9.1395 C.3     1  UNL1        0.2054
      4 O          60.4864   87.6701    9.2194 O.3     1  UNL1       -0.4755
      5 C          63.1465   84.3405   10.6641 C.ar    1  UNL1        0.0815
      6 C          62.2242   85.0333   11.6229 C.ar    1  UNL1        0.0105
      7 C          61.3375   86.1432   11.1413 C.ar    1  UNL1        0.0371
      8 C          61.3731   86.5602    9.7009 C.ar    1  UNL1        0.1386
      9 C          62.2954   85.8674    8.7421 C.ar    1  UNL1        0.0371
     10 C          63.1821   84.7575    9.2237 C.ar    1  UNL1        0.0105
     11 N          64.8651   83.4171   12.3798 N.2     1  UNL1       -0.0994
     12 C          64.0332   83.2306   11.1457 C.2     1  UNL1        0.3093
     13 N          64.0880   81.9342   10.3932 N.pl3   1  UNL1       -0.2466
     14 H          65.4471   82.6886   12.6959 H       1  UNL1        0.3633
     15 H          64.6700   81.2058   10.7093 H       1  UNL1        0.2884
     16 H          63.5420   81.8118    9.5832 H       1  UNL1        0.2884
     17 C          63.0580   91.5431   11.4494 C.3     1  UNL1        0.0475
     18 C          64.2738   91.3574   12.3080 C.3     1  UNL1        0.2054
     19 O          64.1457   91.3699   13.8024 O.3     1  UNL1       -0.4755
     20 C          63.9410   90.0847   14.5484 C.ar    1  UNL1        0.1386
     21 C          64.3246   88.7804   13.9148 C.ar    1  UNL1        0.0371
     22 C          64.1199   87.4953   14.6608 C.ar    1  UNL1        0.0105
     23 C          63.5316   87.5145   16.0404 C.ar    1  UNL1        0.0815
     24 C          63.1479   88.8188   16.6741 C.ar    1  UNL1        0.0105
     25 C          63.3526   90.1039   15.9281 C.ar    1  UNL1        0.0371
     26 C          63.3269   86.2293   16.7865 C.2     1  UNL1        0.3093
     27 N          62.3747   86.1777   17.9443 N.2     1  UNL1       -0.0994
     28 N          64.0744   84.9958   16.3746 N.pl3   1  UNL1       -0.2466
     29 H          61.8841   86.9874   18.2147 H       1  UNL1        0.3633
     30 H          64.6993   85.0297   15.6146 H       1  UNL1        0.2884
     31 H          63.9400   84.1523   16.8642 H       1  UNL1        0.2884
@<TRIPOS>BOND
     1    11    12    2
     2    12    13    1
     3    12     5    1
     4     5     6   ar
     5     6     7   ar
     6     7     8   ar
     7     8     4    1
     8     4     3    1
     9     3     2    1
    10     2     1    1
    11     1    17    1
    12    17    18    1
    13    18    19    1
    14    19    20    1
    15    20    21   ar
    16    21    22   ar
    17    22    23   ar
    18    23    26    1
    19    26    27    2
    20    26    28    1
    21    23    24   ar
    22    24    25   ar
    23     8     9   ar
    24     9    10   ar
    25    10     5   ar
    26    25    20   ar
    27    11    14    1
    28    13    15    1
    29    13    16    1
    30    27    29    1
    31    28    30    1
    32    28    31    1
