@<TRIPOS>MOLECULE
*****
 30 32 0 0 0
SMALL
GASTEIGER

@<TRIPOS>ATOM
      1 C          63.9514   90.0765   13.3876 C.3     1  UNL1        0.1071
      2 C          63.1733   90.5047   12.1788 C.3     1  UNL1        0.0636
      3 C          62.6272   89.2733   11.5189 C.3     1  UNL1        0.1931
      4 C          63.0678   88.0840   12.3199 C.2     1  UNL1        0.2533
      5 O          62.7465   86.6501   12.0187 O.2     1  UNL1       -0.2722
      6 N          63.8862   88.5804   13.4748 N.am    1  UNL1       -0.2710
      7 C          64.1602   91.1533   15.7428 C.ar    1  UNL1        0.1392
      8 C          64.8776   92.0616   16.6969 C.ar    1  UNL1        0.0368
      9 C          66.1035   92.8015   16.2499 C.ar    1  UNL1        0.0062
     10 C          66.6120   92.6331   14.8488 C.ar    1  UNL1        0.0368
     11 C          65.8946   91.7247   13.8948 C.ar    1  UNL1        0.1392
     12 C          64.6688   90.9848   14.3417 C.ar    1  UNL1        0.0637
     13 C          63.0694   89.1622   17.0060 C.3     1  UNL1        0.2525
     14 O          62.9344   90.4134   16.1898 O.3     1  UNL1       -0.4716
     15 O          66.4031   91.5563   12.4936 O.3     1  UNL1       -0.4716
     16 C          66.2616   92.6753   11.5048 C.3     1  UNL1        0.2525
     17 O          61.7879   89.2375   10.2762 O.3     1  UNL1       -0.3443
     18 C          60.4414   89.8982   10.2613 C.3     1  UNL1        0.1747
     19 C          64.5269   87.7301   14.5313 C.3     1  UNL1        0.1204
     20 C          64.1722   86.2768   14.6416 C.ar    1  UNL1       -0.0021
     21 C          62.9886   85.8537   15.4601 C.ar    1  UNL1        0.0005
     22 C          62.6339   84.4004   15.5703 C.ar    1  UNL1        0.0369
     23 C          63.4630   83.3702   14.8621 C.ar    1  UNL1        0.1468
     24 C          64.6466   83.7934   14.0437 C.ar    1  UNL1        0.0369
     25 C          65.0012   85.2467   13.9334 C.ar    1  UNL1        0.0005
     26 O          63.1082   81.9169   14.9724 O.3     1  UNL1       -0.4045
     27 C          62.6868   81.1530   13.7523 C.3     1  UNL1        0.5753
     28 F          62.2654   80.3890   12.5322 F       1  UNL1       -0.1328
     29 F          64.1144   80.7672   13.5008 F       1  UNL1       -0.1328
     30 F          61.2592   81.5388   14.0039 F       1  UNL1       -0.1328
@<TRIPOS>BOND
     1    13    14    1
     2    14     7    1
     3     7     8   ar
     4     8     9   ar
     5     9    10   ar
     6    10    11   ar
     7    11    15    1
     8    15    16    1
     9    11    12   ar
    10     1    12    1
    11     1     2    1
    12     2     3    1
    13     3    17    1
    14    17    18    1
    15     3     4    1
    16     4     5    2
    17     4     6   am
    18     6    19    1
    19    19    20    1
    20    20    21   ar
    21    21    22   ar
    22    22    23   ar
    23    23    26    1
    24    26    27    1
    25    27    28    1
    26    27    29    1
    27    27    30    1
    28    23    24   ar
    29    24    25   ar
    30    12     7   ar
    31     6     1    1
    32    25    20   ar
@<TRIPOS>MOLECULE
*****
 30 32 0 0 0
SMALL
GASTEIGER

@<TRIPOS>ATOM
      1 C          63.9670   90.0743   13.3946 C.3     1  UNL1        0.1071
      2 C          63.1925   90.5145   12.1878 C.3     1  UNL1        0.0636
      3 C          62.6385   89.2906   11.5207 C.3     1  UNL1        0.1931
      4 C          63.0705   88.0939   12.3152 C.2     1  UNL1        0.2533
      5 O          62.7396   86.6639   12.0059 O.2     1  UNL1       -0.2722
      6 N          63.8916   88.5782   13.4733 N.am    1  UNL1       -0.2710
      7 C          65.9286   91.6961   13.9161 C.ar    1  UNL1        0.1392
      8 C          66.6515   92.5941   14.8758 C.ar    1  UNL1        0.0368
      9 C          66.1357   92.7685   16.2735 C.ar    1  UNL1        0.0062
     10 C          64.8971   92.0448   16.7116 C.ar    1  UNL1        0.0368
     11 C          64.1742   91.1467   15.7519 C.ar    1  UNL1        0.1392
     12 C          64.6899   90.9724   14.3542 C.ar    1  UNL1        0.0637
     13 C          66.4209   92.6761   11.5609 C.3     1  UNL1        0.2525
     14 O          66.4443   91.5217   12.5184 O.3     1  UNL1       -0.4716
     15 O          62.9355   90.4230   16.1900 O.3     1  UNL1       -0.4716
     16 C          63.0485   89.1608   16.9926 C.3     1  UNL1        0.2525
     17 O          61.7997   89.2675   10.2773 O.3     1  UNL1       -0.3443
     18 C          60.3796   88.7884   10.3395 C.3     1  UNL1        0.1747
     19 C          64.5258   87.7176   14.5255 C.3     1  UNL1        0.1204
     20 C          64.1579   86.2673   14.6303 C.ar    1  UNL1       -0.0021
     21 C          64.9645   85.2342   13.9008 C.ar    1  UNL1        0.0005
     22 C          64.5965   83.7839   14.0056 C.ar    1  UNL1        0.0369
     23 C          63.4218   83.3666   14.8400 C.ar    1  UNL1        0.1468
     24 C          62.6152   84.3996   15.5695 C.ar    1  UNL1        0.0369
     25 C          62.9833   85.8500   15.4646 C.ar    1  UNL1        0.0005
     26 O          63.0539   81.9161   14.9448 O.3     1  UNL1       -0.4045
     27 C          62.7228   81.1350   13.7078 C.3     1  UNL1        0.5753
     28 F          62.3917   80.3539   12.4707 F       1  UNL1       -0.1328
     29 F          64.1626   80.7365   13.5740 F       1  UNL1       -0.1328
     30 F          61.2828   81.5336   13.8416 F       1  UNL1       -0.1328
@<TRIPOS>BOND
     1    13    14    1
     2    14     7    1
     3     7     8   ar
     4     8     9   ar
     5     9    10   ar
     6    10    11   ar
     7    11    15    1
     8    15    16    1
     9    11    12   ar
    10     1    12    1
    11     1     2    1
    12     2     3    1
    13     3    17    1
    14    17    18    1
    15     3     4    1
    16     4     5    2
    17     4     6   am
    18     6    19    1
    19    19    20    1
    20    20    21   ar
    21    21    22   ar
    22    22    23   ar
    23    23    26    1
    24    26    27    1
    25    27    28    1
    26    27    29    1
    27    27    30    1
    28    23    24   ar
    29    24    25   ar
    30    12     7   ar
    31     6     1    1
    32    25    20   ar
@<TRIPOS>MOLECULE
*****
 30 32 0 0 0
SMALL
GASTEIGER

@<TRIPOS>ATOM
      1 C          61.9167   86.3656   10.6043 C.3     1  UNL1        0.1071
      2 C          60.8897   86.6732    9.5552 C.3     1  UNL1        0.0636
      3 C          60.3855   88.0656    9.7942 C.3     1  UNL1        0.1931
      4 C          61.1010   88.6186   10.9911 C.2     1  UNL1        0.2533
      5 O          60.9046   89.9827   11.5832 O.2     1  UNL1       -0.2722
      6 N          62.0473   87.5680   11.4917 N.am    1  UNL1       -0.2710
      7 C          63.4188   84.5183    9.5646 C.ar    1  UNL1        0.1392
      8 C          64.1814   83.2340    9.7023 C.ar    1  UNL1        0.0368
      9 C          64.2043   82.5126   11.0172 C.ar    1  UNL1        0.0062
     10 C          63.4648   83.0755   12.1946 C.ar    1  UNL1        0.0368
     11 C          62.7023   84.3599   12.0569 C.ar    1  UNL1        0.1392
     12 C          62.6793   85.0812   10.7419 C.ar    1  UNL1        0.0637
     13 C          62.5330   84.7340    7.1318 C.3     1  UNL1        0.2525
     14 O          63.3959   85.2397    8.2497 O.3     1  UNL1       -0.4716
     15 O          61.9627   84.9229   13.2342 O.3     1  UNL1       -0.4716
     16 C          62.2880   84.4503   14.6202 C.3     1  UNL1        0.2525
     17 O          59.3481   88.7796    8.9794 O.3     1  UNL1       -0.3443
     18 C          59.3265   88.6219    7.4879 C.3     1  UNL1        0.1747
     19 C          62.9634   87.6970   12.6725 C.3     1  UNL1        0.1204
     20 C          63.6605   88.9974   12.9423 C.ar    1  UNL1       -0.0021
     21 C          64.3722   89.2106   14.2454 C.ar    1  UNL1        0.0005
     22 C          65.0693   90.5111   14.5152 C.ar    1  UNL1        0.0369
     23 C          65.0546   91.5984   13.4820 C.ar    1  UNL1        0.1468
     24 C          64.3429   91.3852   12.1789 C.ar    1  UNL1        0.0369
     25 C          63.6458   90.0847   11.9091 C.ar    1  UNL1        0.0005
     26 O          65.7518   92.8989   13.7519 O.3     1  UNL1       -0.4045
     27 C          67.1849   92.9039   14.1946 C.3     1  UNL1        0.5753
     28 F          68.6181   92.9089   14.6374 F       1  UNL1       -0.1328
     29 F          66.7843   93.5569   15.4842 F       1  UNL1       -0.1328
     30 F          67.5856   92.2508   12.9050 F       1  UNL1       -0.1328
@<TRIPOS>BOND
     1    13    14    1
     2    14     7    1
     3     7     8   ar
     4     8     9   ar
     5     9    10   ar
     6    10    11   ar
     7    11    15    1
     8    15    16    1
     9    11    12   ar
    10     1    12    1
    11     1     2    1
    12     2     3    1
    13     3    17    1
    14    17    18    1
    15     3     4    1
    16     4     5    2
    17     4     6   am
    18     6    19    1
    19    19    20    1
    20    20    21   ar
    21    21    22   ar
    22    22    23   ar
    23    23    26    1
    24    26    27    1
    25    27    28    1
    26    27    29    1
    27    27    30    1
    28    23    24   ar
    29    24    25   ar
    30    12     7   ar
    31     6     1    1
    32    25    20   ar
@<TRIPOS>MOLECULE
*****
 30 32 0 0 0
SMALL
GASTEIGER

@<TRIPOS>ATOM
      1 C          61.9074   86.3454   10.5835 C.3     1  UNL1        0.1071
      2 C          60.8778   86.6338    9.5315 C.3     1  UNL1        0.0636
      3 C          60.3370   88.0111    9.7775 C.3     1  UNL1        0.1931
      4 C          61.0324   88.5739   10.9816 C.2     1  UNL1        0.2533
      5 O          60.7983   89.9284   11.5821 O.2     1  UNL1       -0.2722
      6 N          62.0030   87.5444   11.4797 N.am    1  UNL1       -0.2710
      7 C          62.7534   84.3610   12.0315 C.ar    1  UNL1        0.1392
      8 C          63.5480   83.0957   12.1640 C.ar    1  UNL1        0.0368
      9 C          64.2912   82.5494   10.9811 C.ar    1  UNL1        0.0062
     10 C          64.2399   83.2684    9.6657 C.ar    1  UNL1        0.0368
     11 C          63.4453   84.5337    9.5332 C.ar    1  UNL1        0.1392
     12 C          62.7020   85.0800   10.7161 C.ar    1  UNL1        0.0637
     13 C          62.3791   84.4677   14.6002 C.3     1  UNL1        0.2525
     14 O          62.0102   84.9072   13.2143 O.3     1  UNL1       -0.4716
     15 O          63.3939   85.2528    8.2177 O.3     1  UNL1       -0.4716
     16 C          62.6095   84.6749    7.0772 C.3     1  UNL1        0.2525
     17 O          59.2854   88.7040    8.9626 O.3     1  UNL1       -0.3443
     18 C          59.3089   88.6032    7.4662 C.3     1  UNL1        0.1747
     19 C          62.9098   87.6887   12.6658 C.3     1  UNL1        0.1204
     20 C          63.6056   88.9922   12.9238 C.ar    1  UNL1       -0.0021
     21 C          63.5655   90.0809   11.8927 C.ar    1  UNL1        0.0005
     22 C          64.2613   91.3844   12.1508 C.ar    1  UNL1        0.0369
     23 C          64.9973   91.5992   13.4400 C.ar    1  UNL1        0.1468
     24 C          65.0375   90.5106   14.4712 C.ar    1  UNL1        0.0369
     25 C          64.3416   89.2071   14.2130 C.ar    1  UNL1        0.0005
     26 O          65.6931   92.9029   13.6981 O.3     1  UNL1       -0.4045
     27 C          67.1288   92.9137   14.1323 C.3     1  UNL1        0.5753
     28 F          68.5645   92.9245   14.5666 F       1  UNL1       -0.1328
     29 F          66.7301   93.5420   15.4347 F       1  UNL1       -0.1328
     30 F          67.5275   92.2853   12.8299 F       1  UNL1       -0.1328
@<TRIPOS>BOND
     1    13    14    1
     2    14     7    1
     3     7     8   ar
     4     8     9   ar
     5     9    10   ar
     6    10    11   ar
     7    11    15    1
     8    15    16    1
     9    11    12   ar
    10     1    12    1
    11     1     2    1
    12     2     3    1
    13     3    17    1
    14    17    18    1
    15     3     4    1
    16     4     5    2
    17     4     6   am
    18     6    19    1
    19    19    20    1
    20    20    21   ar
    21    21    22   ar
    22    22    23   ar
    23    23    26    1
    24    26    27    1
    25    27    28    1
    26    27    29    1
    27    27    30    1
    28    23    24   ar
    29    24    25   ar
    30    12     7   ar
    31     6     1    1
    32    25    20   ar
@<TRIPOS>MOLECULE
*****
 30 32 0 0 0
SMALL
GASTEIGER

@<TRIPOS>ATOM
      1 C          61.6001   86.2967   10.1239 C.3     1  UNL1        0.1071
      2 C          60.5470   86.3444    9.0567 C.3     1  UNL1        0.0636
      3 C          59.8340   87.6594    9.1676 C.3     1  UNL1        0.1931
      4 C          60.4463   88.4245   10.3033 C.2     1  UNL1        0.2533
      5 O          60.0387   89.7917   10.7666 O.2     1  UNL1       -0.2722
      6 N          61.5378   87.5823   10.8943 N.am    1  UNL1       -0.2710
      7 C          63.3605   84.5985    9.2482 C.ar    1  UNL1        0.1392
      8 C          64.3092   83.4644    9.5007 C.ar    1  UNL1        0.0368
      9 C          64.4462   82.8945   10.8814 C.ar    1  UNL1        0.0062
     10 C          63.6346   83.4587   12.0096 C.ar    1  UNL1        0.0368
     11 C          62.6859   84.5927   11.7571 C.ar    1  UNL1        0.1392
     12 C          62.5488   85.1626   10.3764 C.ar    1  UNL1        0.0637
     13 C          62.4104   84.4454    6.8349 C.3     1  UNL1        0.2525
     14 O          63.2234   85.1684    7.8674 O.3     1  UNL1       -0.4716
     15 O          61.8742   85.1569   12.8854 O.3     1  UNL1       -0.4716
     16 C          62.1631   84.7424   14.2977 C.3     1  UNL1        0.2525
     17 O          58.7065   88.1272    8.2958 O.3     1  UNL1       -0.3443
     18 C          58.9915   88.9753    7.0918 C.3     1  UNL1        0.1747
     19 C          62.4133   87.9595   12.0524 C.3     1  UNL1        0.1204
     20 C          63.1457   89.2684   12.0439 C.ar    1  UNL1       -0.0021
     21 C          63.1893   90.0954   10.7932 C.ar    1  UNL1        0.0005
     22 C          63.9218   91.4043   10.7848 C.ar    1  UNL1        0.0369
     23 C          64.6107   91.8863   12.0270 C.ar    1  UNL1        0.1468
     24 C          64.5671   91.0594   13.2777 C.ar    1  UNL1        0.0369
     25 C          63.8346   89.7504   13.2861 C.ar    1  UNL1        0.0005
     26 O          65.3431   93.1954   12.0185 O.3     1  UNL1       -0.4045
     27 C          66.4385   93.4355   11.0223 C.3     1  UNL1        0.5753
     28 F          67.5340   93.6756   10.0261 F       1  UNL1       -0.1328
     29 F          67.2285   92.3088   11.6194 F       1  UNL1       -0.1328
     30 F          65.6485   94.5622   10.4252 F       1  UNL1       -0.1328
@<TRIPOS>BOND
     1    13    14    1
     2    14     7    1
     3     7     8   ar
     4     8     9   ar
     5     9    10   ar
     6    10    11   ar
     7    11    15    1
     8    15    16    1
     9    11    12   ar
    10     1    12    1
    11     1     2    1
    12     2     3    1
    13     3    17    1
    14    17    18    1
    15     3     4    1
    16     4     5    2
    17     4     6   am
    18     6    19    1
    19    19    20    1
    20    20    21   ar
    21    21    22   ar
    22    22    23   ar
    23    23    26    1
    24    26    27    1
    25    27    28    1
    26    27    29    1
    27    27    30    1
    28    23    24   ar
    29    24    25   ar
    30    12     7   ar
    31     6     1    1
    32    25    20   ar
@<TRIPOS>MOLECULE
*****
 30 32 0 0 0
SMALL
GASTEIGER

@<TRIPOS>ATOM
      1 C          63.2710   94.1574    0.5777 C.3     1  UNL1        0.1071
      2 C          63.7989   93.1144    1.5176 C.3     1  UNL1        0.0636
      3 C          62.6452   92.5825    2.3151 C.3     1  UNL1        0.1931
      4 C          61.4042   93.2969    1.8681 C.2     1  UNL1        0.2533
      5 O          60.0196   93.0766    2.4012 O.2     1  UNL1       -0.2722
      6 N          61.7910   94.2702    0.7944 N.am    1  UNL1       -0.2710
      7 C          64.9986   96.0323    0.0774 C.ar    1  UNL1        0.1392
      8 C          65.8085   96.8236   -0.9064 C.ar    1  UNL1        0.0368
      9 C          65.7007   96.5314   -2.3737 C.ar    1  UNL1        0.0062
     10 C          64.7831   95.4478   -2.8572 C.ar    1  UNL1        0.0368
     11 C          63.9732   94.6565   -1.8734 C.ar    1  UNL1        0.1392
     12 C          64.0810   94.9488   -0.4061 C.ar    1  UNL1        0.0637
     13 C          63.9196   96.8556    2.2928 C.3     1  UNL1        0.2525
     14 O          65.1064   96.3246    1.5447 O.3     1  UNL1       -0.4716
     15 O          63.0555   93.5729   -2.3569 O.3     1  UNL1       -0.4716
     16 C          63.1566   93.0795   -3.7698 C.3     1  UNL1        0.2525
     17 O          62.7193   91.5224    3.3737 O.3     1  UNL1       -0.3443
     18 C          63.7999   90.4834    3.3203 C.3     1  UNL1        0.1747
     19 C          60.8611   95.1942    0.0652 C.3     1  UNL1        0.1204
     20 C          59.7525   94.6330   -0.7750 C.ar    1  UNL1       -0.0021
     21 C          58.4365   95.3482   -0.8552 C.ar    1  UNL1        0.0005
     22 C          57.3279   94.7870   -1.6955 C.ar    1  UNL1        0.0369
     23 C          57.5354   93.5106   -2.4556 C.ar    1  UNL1        0.1468
     24 C          58.8515   92.7954   -2.3754 C.ar    1  UNL1        0.0369
     25 C          59.9601   93.3566   -1.5351 C.ar    1  UNL1        0.0005
     26 O          56.4267   92.9494   -3.2959 O.3     1  UNL1       -0.4045
     27 C          56.0564   91.5006   -3.1787 C.3     1  UNL1        0.5753
     28 F          55.6861   90.0517   -3.0616 F       1  UNL1       -0.1328
     29 F          55.3384   91.7880   -1.8935 F       1  UNL1       -0.1328
     30 F          56.7745   91.2132   -4.4640 F       1  UNL1       -0.1328
@<TRIPOS>BOND
     1    13    14    1
     2    14     7    1
     3     7     8   ar
     4     8     9   ar
     5     9    10   ar
     6    10    11   ar
     7    11    15    1
     8    15    16    1
     9    11    12   ar
    10     1    12    1
    11     1     2    1
    12     2     3    1
    13     3    17    1
    14    17    18    1
    15     3     4    1
    16     4     5    2
    17     4     6   am
    18     6    19    1
    19    19    20    1
    20    20    21   ar
    21    21    22   ar
    22    22    23   ar
    23    23    26    1
    24    26    27    1
    25    27    28    1
    26    27    29    1
    27    27    30    1
    28    23    24   ar
    29    24    25   ar
    30    12     7   ar
    31     6     1    1
    32    25    20   ar
@<TRIPOS>MOLECULE
*****
 30 32 0 0 0
SMALL
GASTEIGER

@<TRIPOS>ATOM
      1 C          58.1563   95.3303   -2.0309 C.3     1  UNL1        0.1071
      2 C          57.0491   96.3028   -2.3106 C.3     1  UNL1        0.0636
      3 C          55.7473   95.5643   -2.2111 C.3     1  UNL1        0.1931
      4 C          56.0499   94.1353   -1.8699 C.2     1  UNL1        0.2533
      5 O          55.0409   93.0428   -1.6744 O.2     1  UNL1       -0.2722
      6 N          57.5388   93.9907   -1.7585 N.am    1  UNL1       -0.2710
      7 C          60.2529   96.2636   -0.8130 C.ar    1  UNL1        0.1392
      8 C          61.7200   96.5758   -0.8068 C.ar    1  UNL1        0.0368
      9 C          62.5577   96.2668   -2.0121 C.ar    1  UNL1        0.0062
     10 C          61.9283   95.6457   -3.2237 C.ar    1  UNL1        0.0368
     11 C          60.4612   95.3335   -3.2299 C.ar    1  UNL1        0.1392
     12 C          59.6235   95.6425   -2.0246 C.ar    1  UNL1        0.0637
     13 C          60.0509   96.6442    1.7491 C.3     1  UNL1        0.2525
     14 O          59.4153   96.5726    0.3923 O.3     1  UNL1       -0.4716
     15 O          59.8317   94.7123   -4.4415 O.3     1  UNL1       -0.4716
     16 C          59.3147   95.5833   -5.5480 C.3     1  UNL1        0.2525
     17 O          54.3825   96.1517   -2.4168 O.3     1  UNL1       -0.3443
     18 C          53.4622   96.3383   -1.2470 C.3     1  UNL1        0.1747
     19 C          58.2799   92.7281   -1.4320 C.3     1  UNL1        0.1204
     20 C          59.3451   92.7354   -0.3760 C.ar    1  UNL1       -0.0021
     21 C          60.7687   92.4396   -0.7446 C.ar    1  UNL1        0.0005
     22 C          61.8339   92.4469    0.3115 C.ar    1  UNL1        0.0369
     23 C          61.4754   92.7500    1.7362 C.ar    1  UNL1        0.1468
     24 C          60.0518   93.0458    2.1048 C.ar    1  UNL1        0.0369
     25 C          58.9867   93.0385    1.0487 C.ar    1  UNL1        0.0005
     26 O          62.5407   92.7572    2.7923 O.3     1  UNL1       -0.4045
     27 C          63.2995   91.5007    3.1010 C.3     1  UNL1        0.5753
     28 F          64.0583   90.2441    3.4096 F       1  UNL1       -0.1328
     29 F          64.3395   91.8801    2.0888 F       1  UNL1       -0.1328
     30 F          62.2594   91.1213    4.1131 F       1  UNL1       -0.1328
@<TRIPOS>BOND
     1    13    14    1
     2    14     7    1
     3     7     8   ar
     4     8     9   ar
     5     9    10   ar
     6    10    11   ar
     7    11    15    1
     8    15    16    1
     9    11    12   ar
    10     1    12    1
    11     1     2    1
    12     2     3    1
    13     3    17    1
    14    17    18    1
    15     3     4    1
    16     4     5    2
    17     4     6   am
    18     6    19    1
    19    19    20    1
    20    20    21   ar
    21    21    22   ar
    22    22    23   ar
    23    23    26    1
    24    26    27    1
    25    27    28    1
    26    27    29    1
    27    27    30    1
    28    23    24   ar
    29    24    25   ar
    30    12     7   ar
    31     6     1    1
    32    25    20   ar
@<TRIPOS>MOLECULE
*****
 30 32 0 0 0
SMALL
GASTEIGER

@<TRIPOS>ATOM
      1 C          58.2563   95.5624   -1.7942 C.3     1  UNL1        0.1071
      2 C          57.1805   96.5734   -2.0601 C.3     1  UNL1        0.0636
      3 C          55.8619   95.8584   -2.0584 C.3     1  UNL1        0.1931
      4 C          56.1227   94.4055   -1.7915 C.2     1  UNL1        0.2533
      5 O          55.0858   93.3253   -1.7033 O.2     1  UNL1       -0.2722
      6 N          57.6025   94.2226   -1.6282 N.am    1  UNL1       -0.2710
      7 C          60.6036   95.6200   -2.9064 C.ar    1  UNL1        0.1392
      8 C          62.0748   95.8997   -2.8215 C.ar    1  UNL1        0.0368
      9 C          62.6700   96.4016   -1.5393 C.ar    1  UNL1        0.0062
     10 C          61.7940   96.6237   -0.3421 C.ar    1  UNL1        0.0368
     11 C          60.3228   96.3440   -0.4271 C.ar    1  UNL1        0.1392
     12 C          59.7276   95.8421   -1.7093 C.ar    1  UNL1        0.0637
     13 C          60.5231   95.6248   -5.5033 C.3     1  UNL1        0.2525
     14 O          60.0084   95.1182   -4.1886 O.3     1  UNL1       -0.4716
     15 O          59.4467   96.5661    0.7701 O.3     1  UNL1       -0.4716
     16 C          60.0630   96.7906    2.1191 C.3     1  UNL1        0.2525
     17 O          54.5183   96.4861   -2.2840 O.3     1  UNL1       -0.3443
     18 C          53.3347   96.0331   -1.4817 C.3     1  UNL1        0.1747
     19 C          58.3052   92.9274   -1.3481 C.3     1  UNL1        0.1204
     20 C          59.3833   92.8688   -0.3069 C.ar    1  UNL1       -0.0021
     21 C          59.0502   93.1250    1.1330 C.ar    1  UNL1        0.0005
     22 C          60.1284   93.0664    2.1742 C.ar    1  UNL1        0.0369
     23 C          61.5397   92.7516    1.7754 C.ar    1  UNL1        0.1468
     24 C          61.8729   92.4954    0.3355 C.ar    1  UNL1        0.0369
     25 C          60.7947   92.5540   -0.7057 C.ar    1  UNL1        0.0005
     26 O          62.6179   92.6931    2.8167 O.3     1  UNL1       -0.4045
     27 C          63.3280   91.4002    3.0893 C.3     1  UNL1        0.5753
     28 F          64.0380   90.1074    3.3619 F       1  UNL1       -0.1328
     29 F          64.3990   91.7821    2.1110 F       1  UNL1       -0.1328
     30 F          62.2569   91.0183    4.0676 F       1  UNL1       -0.1328
@<TRIPOS>BOND
     1    13    14    1
     2    14     7    1
     3     7     8   ar
     4     8     9   ar
     5     9    10   ar
     6    10    11   ar
     7    11    15    1
     8    15    16    1
     9    11    12   ar
    10     1    12    1
    11     1     2    1
    12     2     3    1
    13     3    17    1
    14    17    18    1
    15     3     4    1
    16     4     5    2
    17     4     6   am
    18     6    19    1
    19    19    20    1
    20    20    21   ar
    21    21    22   ar
    22    22    23   ar
    23    23    26    1
    24    26    27    1
    25    27    28    1
    26    27    29    1
    27    27    30    1
    28    23    24   ar
    29    24    25   ar
    30    12     7   ar
    31     6     1    1
    32    25    20   ar
@<TRIPOS>MOLECULE
*****
 30 32 0 0 0
SMALL
GASTEIGER

@<TRIPOS>ATOM
      1 C          63.2795   94.1793    0.6372 C.3     1  UNL1        0.1071
      2 C          63.8101   93.0924    1.5245 C.3     1  UNL1        0.0636
      3 C          62.6825   92.6047    2.3850 C.3     1  UNL1        0.1931
      4 C          61.4549   93.3901    2.0296 C.2     1  UNL1        0.2533
      5 O          60.0969   93.2305    2.6462 O.2     1  UNL1       -0.2722
      6 N          61.8240   94.3633    0.9494 N.am    1  UNL1       -0.2710
      7 C          63.8526   94.6888   -1.8451 C.ar    1  UNL1        0.1392
      8 C          64.6394   95.4569   -2.8654 C.ar    1  UNL1        0.0368
      9 C          65.6400   96.4834   -2.4237 C.ar    1  UNL1        0.0062
     10 C          65.8537   96.7419   -0.9617 C.ar    1  UNL1        0.0368
     11 C          65.0669   95.9739    0.0586 C.ar    1  UNL1        0.1392
     12 C          64.0664   94.9473   -0.3831 C.ar    1  UNL1        0.0637
     13 C          62.0611   93.8778   -3.5430 C.3     1  UNL1        0.2525
     14 O          62.8521   93.6623   -2.2868 O.3     1  UNL1       -0.4716
     15 O          65.2806   96.2323    1.5206 O.3     1  UNL1       -0.4716
     16 C          64.1894   96.8559    2.3394 C.3     1  UNL1        0.2525
     17 O          62.7675   91.5217    3.4194 O.3     1  UNL1       -0.3443
     18 C          63.8183   90.4572    3.3062 C.3     1  UNL1        0.1747
     19 C          60.8997   95.3476    0.2962 C.3     1  UNL1        0.1204
     20 C          59.6823   94.8629   -0.4339 C.ar    1  UNL1       -0.0021
     21 C          58.5215   95.7873   -0.6531 C.ar    1  UNL1        0.0005
     22 C          57.3042   95.3025   -1.3832 C.ar    1  UNL1        0.0369
     23 C          57.2476   93.8933   -1.8941 C.ar    1  UNL1        0.1468
     24 C          58.4084   92.9689   -1.6749 C.ar    1  UNL1        0.0369
     25 C          59.6258   93.4537   -0.9448 C.ar    1  UNL1        0.0005
     26 O          56.0302   93.4086   -2.6242 O.3     1  UNL1       -0.4045
     27 C          56.0093   92.0302   -3.2154 C.3     1  UNL1        0.5753
     28 F          55.9884   90.6517   -3.8065 F       1  UNL1       -0.1328
     29 F          56.2988   92.6065   -4.5696 F       1  UNL1       -0.1328
     30 F          55.7198   91.4539   -1.8610 F       1  UNL1       -0.1328
@<TRIPOS>BOND
     1    13    14    1
     2    14     7    1
     3     7     8   ar
     4     8     9   ar
     5     9    10   ar
     6    10    11   ar
     7    11    15    1
     8    15    16    1
     9    11    12   ar
    10     1    12    1
    11     1     2    1
    12     2     3    1
    13     3    17    1
    14    17    18    1
    15     3     4    1
    16     4     5    2
    17     4     6   am
    18     6    19    1
    19    19    20    1
    20    20    21   ar
    21    21    22   ar
    22    22    23   ar
    23    23    26    1
    24    26    27    1
    25    27    28    1
    26    27    29    1
    27    27    30    1
    28    23    24   ar
    29    24    25   ar
    30    12     7   ar
    31     6     1    1
    32    25    20   ar
