@<TRIPOS>MOLECULE
*****
 19 21 0 0 0
SMALL
GASTEIGER

@<TRIPOS>ATOM
      1 C          61.7125   88.8544   11.2819 C.ar    1  UNL1        0.1388
      2 C          61.6118   89.6708   10.0275 C.ar    1  UNL1        0.0369
      3 C          62.5241   90.8433    9.8205 C.ar    1  UNL1        0.0031
      4 C          63.5370   91.1995   10.8678 C.ar    1  UNL1        0.0010
      5 C          64.4493   92.3721   10.6608 C.ar    1  UNL1        0.0001
      6 C          65.4623   92.7283   11.7081 C.ar    1  UNL1        0.0009
      7 C          65.5631   91.9119   12.9626 C.ar    1  UNL1        0.0136
      8 C          64.6508   90.7394   13.1696 C.ar    1  UNL1        0.0578
      9 CL         64.7515   89.9231   14.4239 Cl      1  UNL1       -0.0822
     10 C          63.6377   90.3832   12.1222 C.ar    1  UNL1        0.0136
     11 C          62.7255   89.2106   12.3292 C.ar    1  UNL1        0.0377
     12 C          66.5760   92.2682   14.0099 C.ar    1  UNL1        0.0392
     13 C          68.0406   92.1463   13.7090 C.ar    1  UNL1        0.1022
     14 N          69.0535   92.5025   14.7563 N.ar    1  UNL1       -0.2224
     15 C          68.6021   92.9806   16.1045 C.ar    1  UNL1        0.1989
     16 N          67.1377   93.1025   16.4054 N.ar    1  UNL1       -0.2224
     17 C          66.1246   92.7463   15.3581 C.ar    1  UNL1        0.1022
     18 C          61.2263   86.3130   11.0477 C.3     1  UNL1        0.2525
     19 O          60.8002   87.6819   11.4889 O.3     1  UNL1       -0.4714
@<TRIPOS>BOND
     1    18    19    1
     2    19     1    1
     3     1     2   ar
     4     2     3   ar
     5     3     4   ar
     6     4     5   ar
     7     5     6   ar
     8     6     7   ar
     9     7    12    1
    10    12    13   ar
    11    13    14   ar
    12    14    15   ar
    13    15    16   ar
    14    16    17   ar
    15     7     8   ar
    16     8     9    1
    17     8    10   ar
    18    10    11   ar
    19    11     1   ar
    20    10     4   ar
    21    17    12   ar
@<TRIPOS>MOLECULE
*****
 19 21 0 0 0
SMALL
GASTEIGER

@<TRIPOS>ATOM
      1 C          63.5938   90.5841   12.6579 C.ar    1  UNL1        0.1388
      2 C          62.8067   90.7797   11.3961 C.ar    1  UNL1        0.0369
      3 C          62.2396   89.5933   10.6744 C.ar    1  UNL1        0.0031
      4 C          62.4595   88.2114   11.2145 C.ar    1  UNL1        0.0010
      5 C          61.8924   87.0250   10.4928 C.ar    1  UNL1        0.0001
      6 C          62.1124   85.6430   11.0329 C.ar    1  UNL1        0.0009
      7 C          62.8995   85.4474   12.2948 C.ar    1  UNL1        0.0136
      8 C          63.4666   86.6338   13.0165 C.ar    1  UNL1        0.0578
      9 CL         64.2537   86.4382   14.2783 Cl      1  UNL1       -0.0822
     10 C          63.2466   88.0158   12.4763 C.ar    1  UNL1        0.0136
     11 C          63.8138   89.2022   13.1980 C.ar    1  UNL1        0.0377
     12 C          63.1195   84.0654   12.8348 C.ar    1  UNL1        0.0392
     13 C          62.3761   83.6101   14.0556 C.ar    1  UNL1        0.1022
     14 N          62.5960   82.2281   14.5957 N.ar    1  UNL1       -0.2224
     15 C          63.5594   81.3014   13.9151 C.ar    1  UNL1        0.1989
     16 N          64.3028   81.7567   12.6945 N.ar    1  UNL1       -0.2224
     17 C          64.0829   83.1387   12.1543 C.ar    1  UNL1        0.1022
     18 C          65.4242   92.4134   12.8890 C.3     1  UNL1        0.2525
     19 O          64.1609   91.7705   13.3796 O.3     1  UNL1       -0.4714
@<TRIPOS>BOND
     1    18    19    1
     2    19     1    1
     3     1     2   ar
     4     2     3   ar
     5     3     4   ar
     6     4     5   ar
     7     5     6   ar
     8     6     7   ar
     9     7    12    1
    10    12    13   ar
    11    13    14   ar
    12    14    15   ar
    13    15    16   ar
    14    16    17   ar
    15     7     8   ar
    16     8     9    1
    17     8    10   ar
    18    10    11   ar
    19    11     1   ar
    20    10     4   ar
    21    17    12   ar
@<TRIPOS>MOLECULE
*****
 19 21 0 0 0
SMALL
GASTEIGER

@<TRIPOS>ATOM
      1 C          66.2270   93.8429   12.2353 C.ar    1  UNL1        0.1388
      2 C          66.6844   93.3842   13.5882 C.ar    1  UNL1        0.0369
      3 C          66.1260   92.1249   14.1816 C.ar    1  UNL1        0.0031
      4 C          65.1102   91.3241   13.4221 C.ar    1  UNL1        0.0010
      5 C          64.5517   90.0648   14.0154 C.ar    1  UNL1        0.0001
      6 C          63.5359   89.2640   13.2559 C.ar    1  UNL1        0.0009
      7 C          63.0785   89.7227   11.9029 C.ar    1  UNL1        0.0136
      8 C          63.6369   90.9821   11.3096 C.ar    1  UNL1        0.0578
      9 CL         63.1795   91.4408    9.9567 Cl      1  UNL1       -0.0822
     10 C          64.6528   91.7828   12.0692 C.ar    1  UNL1        0.0136
     11 C          65.2112   93.0422   11.4758 C.ar    1  UNL1        0.0377
     12 C          62.0626   88.9220   11.1434 C.ar    1  UNL1        0.0392
     13 C          60.6009   89.1006   11.4289 C.ar    1  UNL1        0.1022
     14 N          59.5851   88.2999   10.6694 N.ar    1  UNL1       -0.2224
     15 C          60.0309   87.3206    9.6244 C.ar    1  UNL1        0.1989
     16 N          61.4926   87.1419    9.3388 N.ar    1  UNL1       -0.2224
     17 C          62.5085   87.9427   10.0984 C.ar    1  UNL1        0.1022
     18 C          66.8271   95.2754   10.1526 C.3     1  UNL1        0.2525
     19 O          66.7855   95.1023   11.6420 O.3     1  UNL1       -0.4714
@<TRIPOS>BOND
     1    18    19    1
     2    19     1    1
     3     1     2   ar
     4     2     3   ar
     5     3     4   ar
     6     4     5   ar
     7     5     6   ar
     8     6     7   ar
     9     7    12    1
    10    12    13   ar
    11    13    14   ar
    12    14    15   ar
    13    15    16   ar
    14    16    17   ar
    15     7     8   ar
    16     8     9    1
    17     8    10   ar
    18    10    11   ar
    19    11     1   ar
    20    10     4   ar
    21    17    12   ar
@<TRIPOS>MOLECULE
*****
 19 21 0 0 0
SMALL
GASTEIGER

@<TRIPOS>ATOM
      1 C          62.5109   85.1232   11.6252 C.ar    1  UNL1        0.1388
      2 C          61.8750   85.7151   10.4024 C.ar    1  UNL1        0.0369
      3 C          61.8880   87.2005   10.1946 C.ar    1  UNL1        0.0031
      4 C          62.5370   88.0941   11.2096 C.ar    1  UNL1        0.0010
      5 C          62.5500   89.5796   11.0019 C.ar    1  UNL1        0.0001
      6 C          63.1990   90.4732   12.0169 C.ar    1  UNL1        0.0009
      7 C          63.8350   89.8813   13.2397 C.ar    1  UNL1        0.0136
      8 C          63.8219   88.3959   13.4475 C.ar    1  UNL1        0.0578
      9 CL         64.4579   87.8040   14.6703 Cl      1  UNL1       -0.0822
     10 C          63.1729   87.5023   12.4324 C.ar    1  UNL1        0.0136
     11 C          63.1599   86.0168   12.6402 C.ar    1  UNL1        0.0377
     12 C          64.4840   90.7749   14.2547 C.ar    1  UNL1        0.0392
     13 C          65.8450   91.3470   13.9893 C.ar    1  UNL1        0.1022
     14 N          66.4940   92.2406   15.0043 N.ar    1  UNL1       -0.2224
     15 C          65.7820   92.5622   16.2848 C.ar    1  UNL1        0.1989
     16 N          64.4210   91.9902   16.5502 N.ar    1  UNL1       -0.2224
     17 C          63.7719   91.0966   15.5352 C.ar    1  UNL1        0.1022
     18 C          62.7798   83.0679   13.1916 C.3     1  UNL1        0.2525
     19 O          62.4979   83.6377   11.8330 O.3     1  UNL1       -0.4714
@<TRIPOS>BOND
     1    18    19    1
     2    19     1    1
     3     1     2   ar
     4     2     3   ar
     5     3     4   ar
     6     4     5   ar
     7     5     6   ar
     8     6     7   ar
     9     7    12    1
    10    12    13   ar
    11    13    14   ar
    12    14    15   ar
    13    15    16   ar
    14    16    17   ar
    15     7     8   ar
    16     8     9    1
    17     8    10   ar
    18    10    11   ar
    19    11     1   ar
    20    10     4   ar
    21    17    12   ar
@<TRIPOS>MOLECULE
*****
 19 21 0 0 0
SMALL
GASTEIGER

@<TRIPOS>ATOM
      1 C          63.3428   89.8026   12.3371 C.ar    1  UNL1        0.1388
      2 C          64.1114   90.1757   13.5700 C.ar    1  UNL1        0.0369
      3 C          64.5387   89.1124   14.5378 C.ar    1  UNL1        0.0031
      4 C          64.1975   87.6760   14.2728 C.ar    1  UNL1        0.0010
      5 C          64.6248   86.6127   15.2406 C.ar    1  UNL1        0.0001
      6 C          64.2836   85.1763   14.9756 C.ar    1  UNL1        0.0009
      7 C          63.5150   84.8031   13.7426 C.ar    1  UNL1        0.0136
      8 C          63.0877   85.8665   12.7748 C.ar    1  UNL1        0.0578
      9 CL         62.3191   85.4934   11.5419 Cl      1  UNL1       -0.0822
     10 C          63.4289   87.3029   13.0399 C.ar    1  UNL1        0.0136
     11 C          63.0016   88.3662   12.0721 C.ar    1  UNL1        0.0377
     12 C          63.1738   83.3667   13.4776 C.ar    1  UNL1        0.0392
     13 C          63.8118   82.6440   12.3283 C.ar    1  UNL1        0.1022
     14 N          63.4706   81.2076   12.0633 N.ar    1  UNL1       -0.2224
     15 C          62.4914   80.4939   12.9474 C.ar    1  UNL1        0.1989
     16 N          61.8534   81.2165   14.0966 N.ar    1  UNL1       -0.2224
     17 C          62.1946   82.6530   14.3617 C.ar    1  UNL1        0.1022
     18 C          62.1641   90.4908   10.1264 C.3     1  UNL1        0.2525
     19 O          62.9154   90.8660   11.3693 O.3     1  UNL1       -0.4714
@<TRIPOS>BOND
     1    18    19    1
     2    19     1    1
     3     1     2   ar
     4     2     3   ar
     5     3     4   ar
     6     4     5   ar
     7     5     6   ar
     8     6     7   ar
     9     7    12    1
    10    12    13   ar
    11    13    14   ar
    12    14    15   ar
    13    15    16   ar
    14    16    17   ar
    15     7     8   ar
    16     8     9    1
    17     8    10   ar
    18    10    11   ar
    19    11     1   ar
    20    10     4   ar
    21    17    12   ar
@<TRIPOS>MOLECULE
*****
 19 21 0 0 0
SMALL
GASTEIGER

@<TRIPOS>ATOM
      1 C          63.6865   83.3784   13.4027 C.ar    1  UNL1        0.1388
      2 C          64.5709   82.5732   12.4976 C.ar    1  UNL1        0.0369
      3 C          64.5436   82.8106   11.0168 C.ar    1  UNL1        0.0031
      4 C          63.6318   83.8532   10.4410 C.ar    1  UNL1        0.0010
      5 C          63.6045   84.0906    8.9602 C.ar    1  UNL1        0.0001
      6 C          62.6927   85.1332    8.3845 C.ar    1  UNL1        0.0009
      7 C          61.8082   85.9385    9.2896 C.ar    1  UNL1        0.0136
      8 C          61.8355   85.7011   10.7704 C.ar    1  UNL1        0.0578
      9 CL         60.9510   86.5064   11.6756 Cl      1  UNL1       -0.0822
     10 C          62.7474   84.6584   11.3462 C.ar    1  UNL1        0.0136
     11 C          62.7747   84.4210   12.8270 C.ar    1  UNL1        0.0377
     12 C          60.8964   86.9812    8.7139 C.ar    1  UNL1        0.0392
     13 C          61.1339   88.4321    9.0113 C.ar    1  UNL1        0.1022
     14 N          60.2221   89.4748    8.4355 N.ar    1  UNL1       -0.2224
     15 C          59.0728   89.0665    7.5624 C.ar    1  UNL1        0.1989
     16 N          58.8352   87.6157    7.2650 N.ar    1  UNL1       -0.2224
     17 C          59.7471   86.5729    7.8407 C.ar    1  UNL1        0.1022
     18 C          62.7952   83.9127   15.7839 C.3     1  UNL1        0.2525
     19 O          63.7138   83.1410   14.8836 O.3     1  UNL1       -0.4714
@<TRIPOS>BOND
     1    18    19    1
     2    19     1    1
     3     1     2   ar
     4     2     3   ar
     5     3     4   ar
     6     4     5   ar
     7     5     6   ar
     8     6     7   ar
     9     7    12    1
    10    12    13   ar
    11    13    14   ar
    12    14    15   ar
    13    15    16   ar
    14    16    17   ar
    15     7     8   ar
    16     8     9    1
    17     8    10   ar
    18    10    11   ar
    19    11     1   ar
    20    10     4   ar
    21    17    12   ar
@<TRIPOS>MOLECULE
*****
 19 21 0 0 0
SMALL
GASTEIGER

@<TRIPOS>ATOM
      1 C          63.3659   83.6942   12.4800 C.ar    1  UNL1        0.1388
      2 C          62.6408   83.9695   11.1962 C.ar    1  UNL1        0.0369
      3 C          62.3386   85.3825   10.7937 C.ar    1  UNL1        0.0031
      4 C          62.7615   86.5202   11.6750 C.ar    1  UNL1        0.0010
      5 C          62.4593   87.9332   11.2725 C.ar    1  UNL1        0.0001
      6 C          62.8822   89.0709   12.1538 C.ar    1  UNL1        0.0009
      7 C          63.6074   88.7956   13.4378 C.ar    1  UNL1        0.0136
      8 C          63.9096   87.3826   13.8403 C.ar    1  UNL1        0.0578
      9 CL         64.6347   87.1072   15.1241 Cl      1  UNL1       -0.0822
     10 C          63.4866   86.2449   12.9589 C.ar    1  UNL1        0.0136
     11 C          63.7889   84.8318   13.3614 C.ar    1  UNL1        0.0377
     12 C          64.0303   89.9333   14.3191 C.ar    1  UNL1        0.0392
     13 C          63.2759   90.2236   15.5827 C.ar    1  UNL1        0.1022
     14 N          63.6988   91.3613   16.4641 N.ar    1  UNL1       -0.2224
     15 C          64.8761   92.2087   16.0819 C.ar    1  UNL1        0.1989
     16 N          65.6304   91.9183   14.8183 N.ar    1  UNL1       -0.2224
     17 C          65.2075   90.7806   13.9369 C.ar    1  UNL1        0.1022
     18 C          62.6600   81.1986   12.6342 C.3     1  UNL1        0.2525
     19 O          63.6682   82.2811   12.8826 O.3     1  UNL1       -0.4714
@<TRIPOS>BOND
     1    18    19    1
     2    19     1    1
     3     1     2   ar
     4     2     3   ar
     5     3     4   ar
     6     4     5   ar
     7     5     6   ar
     8     6     7   ar
     9     7    12    1
    10    12    13   ar
    11    13    14   ar
    12    14    15   ar
    13    15    16   ar
    14    16    17   ar
    15     7     8   ar
    16     8     9    1
    17     8    10   ar
    18    10    11   ar
    19    11     1   ar
    20    10     4   ar
    21    17    12   ar
@<TRIPOS>MOLECULE
*****
 19 21 0 0 0
SMALL
GASTEIGER

@<TRIPOS>ATOM
      1 C          63.4465   90.0532   15.0821 C.ar    1  UNL1        0.1388
      2 C          62.4806   89.3202   14.1991 C.ar    1  UNL1        0.0369
      3 C          62.4152   89.6363   12.7342 C.ar    1  UNL1        0.0031
      4 C          63.3155   90.6855   12.1524 C.ar    1  UNL1        0.0010
      5 C          63.2501   91.0016   10.6876 C.ar    1  UNL1        0.0001
      6 C          64.1505   92.0507   10.1057 C.ar    1  UNL1        0.0009
      7 C          65.1164   92.7838   10.9888 C.ar    1  UNL1        0.0136
      8 C          65.1818   92.4677   12.4536 C.ar    1  UNL1        0.0578
      9 CL         66.1477   93.2007   13.3367 Cl      1  UNL1       -0.0822
     10 C          64.2814   91.4185   13.0354 C.ar    1  UNL1        0.0136
     11 C          64.3469   91.1023   14.5003 C.ar    1  UNL1        0.0377
     12 C          66.0168   93.8330   10.4070 C.ar    1  UNL1        0.0392
     13 C          67.3434   93.4439    9.8248 C.ar    1  UNL1        0.1022
     14 N          68.2438   94.4931    9.2430 N.ar    1  UNL1       -0.2224
     15 C          67.8176   95.9313    9.2433 C.ar    1  UNL1        0.1989
     16 N          66.4911   96.3203    9.8254 N.ar    1  UNL1       -0.2224
     17 C          65.5906   95.2711   10.4072 C.ar    1  UNL1        0.1022
     18 C          63.0715   88.3923   17.0444 C.3     1  UNL1        0.2525
     19 O          63.5119   89.7371   16.5469 O.3     1  UNL1       -0.4714
@<TRIPOS>BOND
     1    18    19    1
     2    19     1    1
     3     1     2   ar
     4     2     3   ar
     5     3     4   ar
     6     4     5   ar
     7     5     6   ar
     8     6     7   ar
     9     7    12    1
    10    12    13   ar
    11    13    14   ar
    12    14    15   ar
    13    15    16   ar
    14    16    17   ar
    15     7     8   ar
    16     8     9    1
    17     8    10   ar
    18    10    11   ar
    19    11     1   ar
    20    10     4   ar
    21    17    12   ar
@<TRIPOS>MOLECULE
*****
 19 21 0 0 0
SMALL
GASTEIGER

@<TRIPOS>ATOM
      1 C          63.5062   82.3988   12.8363 C.ar    1  UNL1        0.1388
      2 C          64.3350   81.7531   11.7657 C.ar    1  UNL1        0.0369
      3 C          64.4079   82.3689   10.3999 C.ar    1  UNL1        0.0031
      4 C          63.6520   83.6304   10.1046 C.ar    1  UNL1        0.0010
      5 C          63.7248   84.2462    8.7388 C.ar    1  UNL1        0.0001
      6 C          62.9689   85.5076    8.4435 C.ar    1  UNL1        0.0009
      7 C          62.1401   86.1534    9.5141 C.ar    1  UNL1        0.0136
      8 C          62.0672   85.5376   10.8800 C.ar    1  UNL1        0.0578
      9 CL         61.2384   86.1833   11.9505 Cl      1  UNL1       -0.0822
     10 C          62.8232   84.2760   11.1752 C.ar    1  UNL1        0.0136
     11 C          62.7503   83.6603   12.5410 C.ar    1  UNL1        0.0377
     12 C          61.3842   87.4149    9.2189 C.ar    1  UNL1        0.0392
     13 C          60.2382   87.3935    8.2511 C.ar    1  UNL1        0.1022
     14 N          59.4823   88.6550    7.9558 N.ar    1  UNL1       -0.2224
     15 C          59.8722   89.9378    8.6283 C.ar    1  UNL1        0.1989
     16 N          61.0181   89.9593    9.5960 N.ar    1  UNL1       -0.2224
     17 C          61.7741   88.6977    9.8913 C.ar    1  UNL1        0.1022
     18 C          62.8260   80.4231   14.3803 C.3     1  UNL1        0.2525
     19 O          63.4333   81.7830   14.2021 O.3     1  UNL1       -0.4714
@<TRIPOS>BOND
     1    18    19    1
     2    19     1    1
     3     1     2   ar
     4     2     3   ar
     5     3     4   ar
     6     4     5   ar
     7     5     6   ar
     8     6     7   ar
     9     7    12    1
    10    12    13   ar
    11    13    14   ar
    12    14    15   ar
    13    15    16   ar
    14    16    17   ar
    15     7     8   ar
    16     8     9    1
    17     8    10   ar
    18    10    11   ar
    19    11     1   ar
    20    10     4   ar
    21    17    12   ar
