@<TRIPOS>MOLECULE
*****
 33 37 0 0 0
SMALL
GASTEIGER

@<TRIPOS>ATOM
      1 N          64.0195   85.8792   14.3589 N.3     1  UNL1       -0.2726
      2 C          64.5773   84.5167   14.6461 C.3     1  UNL1        0.0721
      3 C          64.1937   83.6108   13.5138 C.3     1  UNL1        0.0190
      4 C          63.3989   84.4134   12.5268 C.3     1  UNL1        0.0201
      5 C          63.1716   83.2906   11.5585 C.3     1  UNL1        0.0061
      6 C          62.6138   84.6530   11.2713 C.3     1  UNL1        0.0237
      7 C          63.2912   85.8153   13.0491 C.3     1  UNL1        0.0724
      8 C          61.8386   85.5781   10.3807 C.ar    1  UNL1       -0.0225
      9 C          60.9983   86.6668   10.9797 C.ar    1  UNL1       -0.0043
     10 C          60.2230   87.5918   10.0890 C.ar    1  UNL1        0.0035
     11 C          60.2880   87.4281    8.5994 C.ar    1  UNL1        0.0714
     12 C          61.1283   86.3395    8.0004 C.ar    1  UNL1        0.0035
     13 C          61.9036   85.4144    8.8910 C.ar    1  UNL1       -0.0043
     14 C          59.5128   88.3532    7.7088 C.3     1  UNL1        0.4186
     15 F          58.7375   89.2782    6.8181 F       1  UNL1       -0.1659
     16 F          59.9900   89.5266    8.5121 F       1  UNL1       -0.1659
     17 F          59.0356   87.1798    6.9054 F       1  UNL1       -0.1659
     18 C          64.1645   87.0926   15.2288 C.3     1  UNL1        0.0730
     19 C          64.5364   88.4119   14.6198 C.3     1  UNL1        0.0294
     20 C          63.5732   89.5606   14.6726 C.3     1  UNL1        0.0666
     21 S          63.3604   90.4173   13.4598 S.3     1  UNL1       -0.0756
     22 C          65.6714   93.1099   11.8865 C.ar    1  UNL1        0.2029
     23 N          66.0329   93.2294   13.3374 N.ar    1  UNL1       -0.1250
     24 N          65.2112   92.2353   14.1034 N.ar    1  UNL1       -0.1220
     25 C          64.3419   91.5014   13.1259 C.ar    1  UNL1        0.1933
     26 N          64.6262   92.0418   11.7558 N.ar    1  UNL1       -0.2860
     27 C          63.9790   91.5931   10.4792 C.3     1  UNL1        0.1341
     28 C          68.0275   92.1400    9.8475 C.3     1  UNL1        0.0556
     29 C          67.3359   93.4709    9.8264 C.ar    1  UNL1        0.1001
     30 N          67.6057   94.5896    8.8643 N.ar    1  UNL1       -0.2085
     31 C          66.6896   95.7268    9.2069 C.ar    1  UNL1        0.2849
     32 O          65.8534   95.3109   10.3808 O.2     1  UNL1       -0.4283
     33 C          66.2529   93.9167   10.7636 C.ar    1  UNL1        0.1964
@<TRIPOS>BOND
     1    28    29    1
     2    29    30   ar
     3    30    31   ar
     4    31    32   ar
     5    32    33   ar
     6    33    22    1
     7    22    23   ar
     8    23    24   ar
     9    24    25   ar
    10    25    21    1
    11    21    20    1
    12    20    19    1
    13    19    18    1
    14    18     1    1
    15     1     2    1
    16     2     3    1
    17     4     3    1
    18     4     5    1
    19     5     6    1
    20     6     8    1
    21     8     9   ar
    22     9    10   ar
    23    10    11   ar
    24    11    14    1
    25    14    15    1
    26    14    16    1
    27    14    17    1
    28    11    12   ar
    29    12    13   ar
    30     4     7    1
    31    25    26   ar
    32    26    27    1
    33    33    29   ar
    34    26    22   ar
    35     7     1    1
    36     6     4    1
    37    13     8   ar
@<TRIPOS>MOLECULE
*****
 33 37 0 0 0
SMALL
GASTEIGER

@<TRIPOS>ATOM
      1 N          64.3974   85.7973   15.0444 N.3     1  UNL1       -0.2726
      2 C          63.6700   85.5480   16.3324 C.3     1  UNL1        0.0721
      3 C          63.1995   86.8700   16.8623 C.3     1  UNL1        0.0190
      4 C          63.6360   87.9364   15.9019 C.3     1  UNL1        0.0201
      5 C          63.0486   89.0857   16.6660 C.3     1  UNL1        0.0061
      6 C          63.7759   89.3350   15.3781 C.3     1  UNL1        0.0237
      7 C          64.3764   87.2734   14.7784 C.3     1  UNL1        0.0724
      8 C          64.2766   90.2864   14.3321 C.ar    1  UNL1       -0.0225
      9 C          63.5042   90.4771   13.0604 C.ar    1  UNL1       -0.0043
     10 C          64.0049   91.4285   12.0144 C.ar    1  UNL1        0.0035
     11 C          65.2779   92.1891   12.2400 C.ar    1  UNL1        0.0714
     12 C          66.0503   91.9983   13.5117 C.ar    1  UNL1        0.0035
     13 C          65.5496   91.0469   14.5577 C.ar    1  UNL1       -0.0043
     14 C          65.7786   93.1405   11.1940 C.3     1  UNL1        0.4186
     15 F          66.2793   94.0919   10.1479 F       1  UNL1       -0.1659
     16 F          66.8456   93.6144   12.1358 F       1  UNL1       -0.1659
     17 F          64.7116   92.6666   10.2523 F       1  UNL1       -0.1659
     18 C          65.0339   84.7537   14.1751 C.3     1  UNL1        0.0730
     19 C          64.4256   83.3861   14.0772 C.3     1  UNL1        0.0294
     20 C          63.7341   82.9613   12.8157 C.3     1  UNL1        0.0666
     21 S          63.8069   83.8266   11.5926 S.3     1  UNL1       -0.0756
     22 C          61.3119   86.4915   10.2739 C.ar    1  UNL1        0.2029
     23 N          61.0594   86.5637   11.7508 N.ar    1  UNL1       -0.1250
     24 N          61.9633   85.5742   12.4245 N.ar    1  UNL1       -0.1220
     25 C          62.7744   84.8905   11.3640 C.ar    1  UNL1        0.1933
     26 N          62.3719   85.4573   10.0349 N.ar    1  UNL1       -0.2860
     27 C          62.9311   85.0599    8.7010 C.3     1  UNL1        0.1341
     28 C          61.4094   89.7422   10.0039 C.3     1  UNL1        0.0556
     29 C          60.6698   88.8039    9.0969 C.ar    1  UNL1        0.1001
     30 N          59.8452   89.1951    7.9065 N.ar    1  UNL1       -0.2085
     31 C          59.2908   87.9426    7.2949 C.ar    1  UNL1        0.2849
     32 O          59.7727   86.7774    8.1073 O.2     1  UNL1       -0.4283
     33 C          60.6250   87.3098    9.2210 C.ar    1  UNL1        0.1964
@<TRIPOS>BOND
     1    28    29    1
     2    29    30   ar
     3    30    31   ar
     4    31    32   ar
     5    32    33   ar
     6    33    22    1
     7    22    23   ar
     8    23    24   ar
     9    24    25   ar
    10    25    21    1
    11    21    20    1
    12    20    19    1
    13    19    18    1
    14    18     1    1
    15     1     2    1
    16     2     3    1
    17     4     3    1
    18     4     5    1
    19     5     6    1
    20     6     8    1
    21     8     9   ar
    22     9    10   ar
    23    10    11   ar
    24    11    14    1
    25    14    15    1
    26    14    16    1
    27    14    17    1
    28    11    12   ar
    29    12    13   ar
    30     4     7    1
    31    25    26   ar
    32    26    27    1
    33    33    29   ar
    34    26    22   ar
    35     7     1    1
    36     6     4    1
    37    13     8   ar
@<TRIPOS>MOLECULE
*****
 33 37 0 0 0
SMALL
GASTEIGER

@<TRIPOS>ATOM
      1 N          62.1369   86.4275    8.9274 N.3     1  UNL1       -0.2726
      2 C          60.6836   86.3265    8.5700 C.3     1  UNL1        0.0721
      3 C          59.9946   87.5580    9.0785 C.3     1  UNL1        0.0190
      4 C          61.0220   88.4201    9.7502 C.3     1  UNL1        0.0201
      5 C          60.0769   89.5195   10.1351 C.3     1  UNL1        0.0061
      6 C          61.5302   89.6204   10.4925 C.3     1  UNL1        0.0237
      7 C          62.3461   87.7214    9.6568 C.3     1  UNL1        0.0724
      8 C          62.6627   90.3717   11.1274 C.ar    1  UNL1       -0.0225
      9 C          63.0213   90.1166   12.5615 C.ar    1  UNL1       -0.0043
     10 C          64.1537   90.8679   13.1964 C.ar    1  UNL1        0.0035
     11 C          64.9275   91.8742   12.3973 C.ar    1  UNL1        0.0714
     12 C          64.5689   92.1293   10.9633 C.ar    1  UNL1        0.0035
     13 C          63.4365   91.3780   10.3284 C.ar    1  UNL1       -0.0043
     14 C          66.0600   92.6255   13.0322 C.3     1  UNL1        0.4186
     15 F          67.1925   93.3768   13.6672 F       1  UNL1       -0.1659
     16 F          66.4468   91.3951   13.7981 F       1  UNL1       -0.1659
     17 F          65.6732   93.8558   12.2664 F       1  UNL1       -0.1659
     18 C          63.1952   85.4126    8.6110 C.3     1  UNL1        0.0730
     19 C          63.0437   83.9980    9.0861 C.3     1  UNL1        0.0294
     20 C          63.9680   83.4562   10.1359 C.3     1  UNL1        0.0666
     21 S          63.4459   82.5172   11.1827 S.3     1  UNL1       -0.0756
     22 C          63.3831   84.1253   14.7148 C.ar    1  UNL1        0.2029
     23 N          63.9748   82.7808   15.0188 N.ar    1  UNL1       -0.1250
     24 N          64.0704   82.0148   13.7327 N.ar    1  UNL1       -0.1220
     25 C          63.5377   82.8859   12.6338 C.ar    1  UNL1        0.1933
     26 N          63.1130   84.1902   13.2407 N.ar    1  UNL1       -0.2860
     27 C          62.5219   85.3549   12.5031 C.3     1  UNL1        0.1341
     28 C          64.6389   87.1368   14.6575 C.3     1  UNL1        0.0556
     29 C          63.6868   86.5979   15.6837 C.ar    1  UNL1        0.1001
     30 N          63.1448   87.3487   16.8638 N.ar    1  UNL1       -0.2085
     31 C          62.2326   86.4284   17.6195 C.ar    1  UNL1        0.2849
     32 O          62.2108   85.1089   16.9064 O.2     1  UNL1       -0.4283
     33 C          63.1096   85.2137   15.7101 C.ar    1  UNL1        0.1964
@<TRIPOS>BOND
     1    28    29    1
     2    29    30   ar
     3    30    31   ar
     4    31    32   ar
     5    32    33   ar
     6    33    22    1
     7    22    23   ar
     8    23    24   ar
     9    24    25   ar
    10    25    21    1
    11    21    20    1
    12    20    19    1
    13    19    18    1
    14    18     1    1
    15     1     2    1
    16     2     3    1
    17     4     3    1
    18     4     5    1
    19     5     6    1
    20     6     8    1
    21     8     9   ar
    22     9    10   ar
    23    10    11   ar
    24    11    14    1
    25    14    15    1
    26    14    16    1
    27    14    17    1
    28    11    12   ar
    29    12    13   ar
    30     4     7    1
    31    25    26   ar
    32    26    27    1
    33    33    29   ar
    34    26    22   ar
    35     7     1    1
    36     6     4    1
    37    13     8   ar
@<TRIPOS>MOLECULE
*****
 33 37 0 0 0
SMALL
GASTEIGER

@<TRIPOS>ATOM
      1 N          62.1436   85.9278    9.3200 N.3     1  UNL1       -0.2726
      2 C          62.7246   84.8695    8.4298 C.3     1  UNL1        0.0721
      3 C          63.5025   83.9172    9.2887 C.3     1  UNL1        0.0190
      4 C          63.4023   84.3868   10.7098 C.3     1  UNL1        0.0201
      5 C          64.2377   83.2883   11.2973 C.3     1  UNL1        0.0061
      6 C          63.6567   84.3465   12.1875 C.3     1  UNL1        0.0237
      7 C          62.5624   85.6295   10.7291 C.3     1  UNL1        0.0724
      8 C          63.4681   84.9343   13.5546 C.ar    1  UNL1       -0.0225
      9 C          62.5311   84.2831   14.5283 C.ar    1  UNL1       -0.0043
     10 C          62.3425   84.8708   15.8954 C.ar    1  UNL1        0.0035
     11 C          63.0909   86.1098   16.2888 C.ar    1  UNL1        0.0714
     12 C          64.0279   86.7610   15.3152 C.ar    1  UNL1        0.0035
     13 C          64.2165   86.1733   13.9481 C.ar    1  UNL1       -0.0043
     14 C          62.9024   86.6975   17.6559 C.3     1  UNL1        0.4186
     15 F          62.7138   87.2853   19.0231 F       1  UNL1       -0.1659
     16 F          62.3688   85.3844   18.1468 F       1  UNL1       -0.1659
     17 F          63.4359   88.0106   17.1650 F       1  UNL1       -0.1659
     18 C          61.2930   87.0818    8.8786 C.3     1  UNL1        0.0730
     19 C          61.1401   88.2827    9.7642 C.3     1  UNL1        0.0294
     20 C          62.3517   89.0518   10.2011 C.3     1  UNL1        0.0666
     21 S          62.2011   90.4382   10.7534 S.3     1  UNL1       -0.0756
     22 C          65.1691   91.9935   12.7124 C.ar    1  UNL1        0.2029
     23 N          65.3378   92.6398   11.3693 N.ar    1  UNL1       -0.1250
     24 N          64.2465   92.1359   10.4720 N.ar    1  UNL1       -0.1220
     25 C          63.4034   91.1781   11.2605 C.ar    1  UNL1        0.1933
     26 N          63.9735   91.0900   12.6452 N.ar    1  UNL1       -0.2860
     27 C          63.4416   90.2467   13.7658 C.3     1  UNL1        0.1341
     28 C          68.4096   91.6226   12.8190 C.3     1  UNL1        0.0556
     29 C          67.5321   92.0417   13.9611 C.ar    1  UNL1        0.1001
     30 N          67.9899   92.3639   15.3527 N.ar    1  UNL1       -0.2085
     31 C          66.7835   92.7335   16.1637 C.ar    1  UNL1        0.2849
     32 O          65.5799   92.6397   15.2734 O.2     1  UNL1       -0.4283
     33 C          66.0426   92.2122   13.9121 C.ar    1  UNL1        0.1964
@<TRIPOS>BOND
     1    28    29    1
     2    29    30   ar
     3    30    31   ar
     4    31    32   ar
     5    32    33   ar
     6    33    22    1
     7    22    23   ar
     8    23    24   ar
     9    24    25   ar
    10    25    21    1
    11    21    20    1
    12    20    19    1
    13    19    18    1
    14    18     1    1
    15     1     2    1
    16     2     3    1
    17     4     3    1
    18     4     5    1
    19     5     6    1
    20     6     8    1
    21     8     9   ar
    22     9    10   ar
    23    10    11   ar
    24    11    14    1
    25    14    15    1
    26    14    16    1
    27    14    17    1
    28    11    12   ar
    29    12    13   ar
    30     4     7    1
    31    25    26   ar
    32    26    27    1
    33    33    29   ar
    34    26    22   ar
    35     7     1    1
    36     6     4    1
    37    13     8   ar
@<TRIPOS>MOLECULE
*****
 33 37 0 0 0
SMALL
GASTEIGER

@<TRIPOS>ATOM
      1 N          61.9016   89.5239   11.3199 N.3     1  UNL1       -0.2726
      2 C          61.3129   90.0482   10.0437 C.3     1  UNL1        0.0721
      3 C          61.1281   88.8902    9.1084 C.3     1  UNL1        0.0190
      4 C          61.6026   87.6502    9.8065 C.3     1  UNL1        0.0201
      5 C          61.3057   86.7103    8.6758 C.3     1  UNL1        0.0061
      6 C          61.8944   86.1861    9.9520 C.3     1  UNL1        0.0237
      7 C          62.0806   88.0419   11.1733 C.3     1  UNL1        0.0724
      8 C          62.4027   85.0381   10.7728 C.ar    1  UNL1       -0.0225
      9 C          63.1980   83.9451   10.1223 C.ar    1  UNL1       -0.0043
     10 C          63.7063   82.7972   10.9431 C.ar    1  UNL1        0.0035
     11 C          63.4193   82.7421   12.4143 C.ar    1  UNL1        0.0714
     12 C          62.6241   83.8350   13.0648 C.ar    1  UNL1        0.0035
     13 C          62.1157   84.9830   12.2440 C.ar    1  UNL1       -0.0043
     14 C          63.9277   81.5941   13.2351 C.3     1  UNL1        0.4186
     15 F          64.4360   80.4460   14.0559 F       1  UNL1       -0.1659
     16 F          64.5730   82.5590   14.1851 F       1  UNL1       -0.1659
     17 F          63.2823   80.6292   12.2852 F       1  UNL1       -0.1659
     18 C          62.2500   90.3387   12.5302 C.3     1  UNL1        0.0730
     19 C          63.3145   89.8626   13.4737 C.3     1  UNL1        0.0294
     20 C          64.0439   90.8465   14.3397 C.3     1  UNL1        0.0666
     21 S          65.4746   91.1879   14.0458 S.3     1  UNL1       -0.0756
     22 C          66.1228   94.3539   11.8959 C.ar    1  UNL1        0.2029
     23 N          66.5906   94.8178   13.2435 N.ar    1  UNL1       -0.1250
     24 N          66.4048   93.6883   14.2129 N.ar    1  UNL1       -0.1220
     25 C          65.8221   92.5263   13.4644 C.ar    1  UNL1        0.1933
     26 N          65.6477   92.9376   12.0325 N.ar    1  UNL1       -0.2860
     27 C          65.0954   92.0828   10.9306 C.3     1  UNL1        0.1341
     28 C          68.0084   93.8240    9.2857 C.3     1  UNL1        0.0556
     29 C          66.9955   94.9204    9.4337 C.ar    1  UNL1        0.1001
     30 N          66.6716   95.9658    8.4080 N.ar    1  UNL1       -0.2085
     31 C          65.6047   96.8555    8.9738 C.ar    1  UNL1        0.2849
     32 O          65.2692   96.3600   10.3493 O.2     1  UNL1       -0.4283
     33 C          66.1288   95.1640   10.6335 C.ar    1  UNL1        0.1964
@<TRIPOS>BOND
     1    28    29    1
     2    29    30   ar
     3    30    31   ar
     4    31    32   ar
     5    32    33   ar
     6    33    22    1
     7    22    23   ar
     8    23    24   ar
     9    24    25   ar
    10    25    21    1
    11    21    20    1
    12    20    19    1
    13    19    18    1
    14    18     1    1
    15     1     2    1
    16     2     3    1
    17     4     3    1
    18     4     5    1
    19     5     6    1
    20     6     8    1
    21     8     9   ar
    22     9    10   ar
    23    10    11   ar
    24    11    14    1
    25    14    15    1
    26    14    16    1
    27    14    17    1
    28    11    12   ar
    29    12    13   ar
    30     4     7    1
    31    25    26   ar
    32    26    27    1
    33    33    29   ar
    34    26    22   ar
    35     7     1    1
    36     6     4    1
    37    13     8   ar
@<TRIPOS>MOLECULE
*****
 33 37 0 0 0
SMALL
GASTEIGER

@<TRIPOS>ATOM
      1 N          64.4939   91.3524   14.6419 N.3     1  UNL1       -0.2726
      2 C          65.5601   92.3820   14.4113 C.3     1  UNL1        0.0721
      3 C          65.6266   92.6583   12.9384 C.3     1  UNL1        0.0190
      4 C          64.6016   91.7995   12.2589 C.3     1  UNL1        0.0201
      5 C          64.8953   92.2762   10.8673 C.3     1  UNL1        0.0061
      6 C          63.8292   91.2466   11.0980 C.3     1  UNL1        0.0237
      7 C          63.9016   90.9924   13.3117 C.3     1  UNL1        0.0724
      8 C          62.7677   90.3329   10.5609 C.ar    1  UNL1       -0.0225
      9 C          61.3339   90.7735   10.5506 C.ar    1  UNL1       -0.0043
     10 C          60.2724   89.8598   10.0136 C.ar    1  UNL1        0.0035
     11 C          60.6447   88.5056    9.4869 C.ar    1  UNL1        0.0714
     12 C          62.0785   88.0650    9.4972 C.ar    1  UNL1        0.0035
     13 C          63.1400   88.9787   10.0343 C.ar    1  UNL1       -0.0043
     14 C          59.5832   87.5919    8.9499 C.3     1  UNL1        0.4186
     15 F          58.5217   86.6782    8.4128 F       1  UNL1       -0.1659
     16 F          60.0660   86.4984    9.8560 F       1  UNL1       -0.1659
     17 F          59.1005   88.6854    8.0437 F       1  UNL1       -0.1659
     18 C          64.0909   90.7827   15.9697 C.3     1  UNL1        0.0730
     19 C          63.0904   89.6670   16.0347 C.3     1  UNL1        0.0294
     20 C          63.5549   88.2409   16.0137 C.3     1  UNL1        0.0666
     21 S          64.3364   87.7238   14.8424 S.3     1  UNL1       -0.0756
     22 C          63.0495   84.4844   13.1348 C.ar    1  UNL1        0.2029
     23 N          62.6785   85.5179   12.1128 N.ar    1  UNL1       -0.1250
     24 N          63.1154   86.8571   12.6281 N.ar    1  UNL1       -0.1220
     25 C          63.7564   86.6514   13.9686 C.ar    1  UNL1        0.1933
     26 N          63.7157   85.1850   14.2817 N.ar    1  UNL1       -0.2860
     27 C          64.2478   84.5335   15.5237 C.3     1  UNL1        0.1341
     28 C          64.0306   82.5420   10.7029 C.3     1  UNL1        0.0556
     29 C          63.2493   82.1166   11.9106 C.ar    1  UNL1        0.1001
     30 N          62.7818   80.7236   12.2127 N.ar    1  UNL1       -0.2085
     31 C          62.0419   80.7556   13.5171 C.ar    1  UNL1        0.2849
     32 O          62.0522   82.1683   14.0213 O.2     1  UNL1       -0.4283
     33 C          62.7983   83.0094   13.0284 C.ar    1  UNL1        0.1964
@<TRIPOS>BOND
     1    28    29    1
     2    29    30   ar
     3    30    31   ar
     4    31    32   ar
     5    32    33   ar
     6    33    22    1
     7    22    23   ar
     8    23    24   ar
     9    24    25   ar
    10    25    21    1
    11    21    20    1
    12    20    19    1
    13    19    18    1
    14    18     1    1
    15     1     2    1
    16     2     3    1
    17     4     3    1
    18     4     5    1
    19     5     6    1
    20     6     8    1
    21     8     9   ar
    22     9    10   ar
    23    10    11   ar
    24    11    14    1
    25    14    15    1
    26    14    16    1
    27    14    17    1
    28    11    12   ar
    29    12    13   ar
    30     4     7    1
    31    25    26   ar
    32    26    27    1
    33    33    29   ar
    34    26    22   ar
    35     7     1    1
    36     6     4    1
    37    13     8   ar
@<TRIPOS>MOLECULE
*****
 33 37 0 0 0
SMALL
GASTEIGER

@<TRIPOS>ATOM
      1 N          62.7370   90.3734   12.7516 N.3     1  UNL1       -0.2726
      2 C          63.0473   89.6703   14.0398 C.3     1  UNL1        0.0721
      3 C          64.4141   90.0993   14.4844 C.3     1  UNL1        0.0190
      4 C          64.9486   91.0676   13.4710 C.3     1  UNL1        0.0201
      5 C          66.2610   91.3045   14.1575 C.3     1  UNL1        0.0061
      6 C          65.9507   92.0077   12.8694 C.3     1  UNL1        0.0237
      7 C          63.9120   91.2370   12.4001 C.3     1  UNL1        0.0724
      8 C          66.3501   92.9563   11.7783 C.ar    1  UNL1       -0.0225
      9 C          66.9669   92.4307   10.5160 C.ar    1  UNL1       -0.0043
     10 C          67.3663   93.3794    9.4249 C.ar    1  UNL1        0.0035
     11 C          67.1489   94.8537    9.5961 C.ar    1  UNL1        0.0714
     12 C          66.5322   95.3792   10.8585 C.ar    1  UNL1        0.0035
     13 C          66.1328   94.4306   11.9495 C.ar    1  UNL1       -0.0043
     14 C          67.5483   95.8023    8.5051 C.3     1  UNL1        0.4186
     15 F          67.9477   96.7511    7.4139 F       1  UNL1       -0.1659
     16 F          67.2488   94.7492    7.4798 F       1  UNL1       -0.1659
     17 F          67.8478   96.8554    9.5303 F       1  UNL1       -0.1659
     18 C          61.4735   90.2369   11.9548 C.3     1  UNL1        0.0730
     19 C          61.5250   90.2674   10.4560 C.3     1  UNL1        0.0294
     20 C          60.5399   89.4684    9.6552 C.3     1  UNL1        0.0666
     21 S          60.9055   88.0976    9.1684 S.3     1  UNL1       -0.0756
     22 C          62.3931   85.0747   11.0958 C.ar    1  UNL1        0.2029
     23 N          61.6741   85.7956   12.1975 N.ar    1  UNL1       -0.1250
     24 N          61.0294   87.0157   11.6095 N.ar    1  UNL1       -0.1220
     25 C          61.3498   87.0489   10.1445 C.ar    1  UNL1        0.1933
     26 N          62.1927   85.8494    9.8270 N.ar    1  UNL1       -0.2860
     27 C          62.7391   85.4879    8.4777 C.3     1  UNL1        0.1341
     28 C          63.8880   84.0347   13.8038 C.3     1  UNL1        0.0556
     29 C          63.8623   83.3246   12.4828 C.ar    1  UNL1        0.1001
     30 N          64.5192   82.0118   12.1745 N.ar    1  UNL1       -0.2085
     31 C          64.2381   81.6785   10.7392 C.ar    1  UNL1        0.2849
     32 O          63.4075   82.7854   10.1605 O.2     1  UNL1       -0.4283
     33 C          63.1752   83.8027   11.2381 C.ar    1  UNL1        0.1964
@<TRIPOS>BOND
     1    28    29    1
     2    29    30   ar
     3    30    31   ar
     4    31    32   ar
     5    32    33   ar
     6    33    22    1
     7    22    23   ar
     8    23    24   ar
     9    24    25   ar
    10    25    21    1
    11    21    20    1
    12    20    19    1
    13    19    18    1
    14    18     1    1
    15     1     2    1
    16     2     3    1
    17     4     3    1
    18     4     5    1
    19     5     6    1
    20     6     8    1
    21     8     9   ar
    22     9    10   ar
    23    10    11   ar
    24    11    14    1
    25    14    15    1
    26    14    16    1
    27    14    17    1
    28    11    12   ar
    29    12    13   ar
    30     4     7    1
    31    25    26   ar
    32    26    27    1
    33    33    29   ar
    34    26    22   ar
    35     7     1    1
    36     6     4    1
    37    13     8   ar
@<TRIPOS>MOLECULE
*****
 33 37 0 0 0
SMALL
GASTEIGER

@<TRIPOS>ATOM
      1 N          62.4807   89.3056   11.8621 N.3     1  UNL1       -0.2726
      2 C          62.0808   89.9641   10.5750 C.3     1  UNL1        0.0721
      3 C          61.8823   88.8899    9.5470 C.3     1  UNL1        0.0190
      4 C          62.1596   87.5676   10.1986 C.3     1  UNL1        0.0201
      5 C          61.8915   86.7335    8.9811 C.3     1  UNL1        0.0061
      6 C          62.2914   86.0750   10.2682 C.3     1  UNL1        0.0237
      7 C          62.5294   87.8245   11.6295 C.3     1  UNL1        0.0724
      8 C          62.5983   84.8331   11.0514 C.ar    1  UNL1       -0.0225
      9 C          63.1211   83.6144   10.3504 C.ar    1  UNL1       -0.0043
     10 C          63.4281   82.3725   11.1336 C.ar    1  UNL1        0.0035
     11 C          63.2123   82.3494   12.6178 C.ar    1  UNL1        0.0714
     12 C          62.6895   83.5681   13.3188 C.ar    1  UNL1        0.0035
     13 C          62.3826   84.8100   12.5356 C.ar    1  UNL1       -0.0043
     14 C          63.5192   81.1075   13.4010 C.3     1  UNL1        0.4186
     15 F          63.8262   79.8655   14.1843 F       1  UNL1       -0.1659
     16 F          63.1014   80.2665   12.2313 F       1  UNL1       -0.1659
     17 F          63.9371   81.9484   14.5707 F       1  UNL1       -0.1659
     18 C          62.7794   90.0053   13.1548 C.3     1  UNL1        0.0730
     19 C          63.8824   89.5061   14.0404 C.3     1  UNL1        0.0294
     20 C          64.2269   90.2459   15.2989 C.3     1  UNL1        0.0666
     21 S          64.8558   91.6055   15.2215 S.3     1  UNL1       -0.0756
     22 C          67.2700   92.3522   12.2753 C.ar    1  UNL1        0.2029
     23 N          68.2418   92.1044   13.3907 N.ar    1  UNL1       -0.1250
     24 N          67.4557   91.7945   14.6301 N.ar    1  UNL1       -0.1220
     25 C          65.9981   91.8508   14.2807 C.ar    1  UNL1        0.1933
     26 N          65.8832   92.1955   12.8254 N.ar    1  UNL1       -0.2860
     27 C          64.6060   92.3554   12.0553 C.3     1  UNL1        0.1341
     28 C          66.5071   95.1218   10.7270 C.3     1  UNL1        0.0556
     29 C          67.2723   93.9694   10.1469 C.ar    1  UNL1        0.1001
     30 N          67.8211   93.8877    8.7534 N.ar    1  UNL1       -0.2085
     31 C          68.5109   92.5641    8.6037 C.ar    1  UNL1        0.2849
     32 O          68.3884   91.8279    9.9048 O.2     1  UNL1       -0.4283
     33 C          67.6229   92.6964   10.8586 C.ar    1  UNL1        0.1964
@<TRIPOS>BOND
     1    28    29    1
     2    29    30   ar
     3    30    31   ar
     4    31    32   ar
     5    32    33   ar
     6    33    22    1
     7    22    23   ar
     8    23    24   ar
     9    24    25   ar
    10    25    21    1
    11    21    20    1
    12    20    19    1
    13    19    18    1
    14    18     1    1
    15     1     2    1
    16     2     3    1
    17     4     3    1
    18     4     5    1
    19     5     6    1
    20     6     8    1
    21     8     9   ar
    22     9    10   ar
    23    10    11   ar
    24    11    14    1
    25    14    15    1
    26    14    16    1
    27    14    17    1
    28    11    12   ar
    29    12    13   ar
    30     4     7    1
    31    25    26   ar
    32    26    27    1
    33    33    29   ar
    34    26    22   ar
    35     7     1    1
    36     6     4    1
    37    13     8   ar
@<TRIPOS>MOLECULE
*****
 33 37 0 0 0
SMALL
GASTEIGER

@<TRIPOS>ATOM
      1 N          60.1132   88.8483    9.5232 N.3     1  UNL1       -0.2726
      2 C          59.7301   88.7605    8.0756 C.3     1  UNL1        0.0721
      3 C          60.2571   87.4645    7.5346 C.3     1  UNL1        0.0190
      4 C          60.9658   86.7514    8.6478 C.3     1  UNL1        0.0201
      5 C          61.3620   85.5521    7.8386 C.3     1  UNL1        0.0061
      6 C          61.7450   85.6399    9.2862 C.3     1  UNL1        0.0237
      7 C          60.8769   87.6066    9.8768 C.3     1  UNL1        0.0724
      8 C          62.4160   85.0490   10.4905 C.ar    1  UNL1       -0.0225
      9 C          62.0956   85.5716   11.8596 C.ar    1  UNL1       -0.0043
     10 C          62.7666   84.9806   13.0639 C.ar    1  UNL1        0.0035
     11 C          63.7580   83.8671   12.8993 C.ar    1  UNL1        0.0714
     12 C          64.0784   83.3445   11.5302 C.ar    1  UNL1        0.0035
     13 C          63.4074   83.9354   10.3259 C.ar    1  UNL1       -0.0043
     14 C          64.4290   83.2761   14.1036 C.3     1  UNL1        0.4186
     15 F          65.1001   82.6851   15.3081 F       1  UNL1       -0.1659
     16 F          64.0210   81.9034   13.6574 F       1  UNL1       -0.1659
     17 F          64.8370   84.6488   14.5499 F       1  UNL1       -0.1659
     18 C          59.7894   89.9792   10.4539 C.3     1  UNL1        0.0730
     19 C          60.8910   90.6876   11.1851 C.3     1  UNL1        0.0294
     20 C          61.4458   90.1059   12.4515 C.3     1  UNL1        0.0666
     21 S          62.9107   89.8017   12.5583 S.3     1  UNL1       -0.0756
     22 C          65.3732   92.7636   12.0798 C.ar    1  UNL1        0.2029
     23 N          65.4897   92.5254   13.5562 N.ar    1  UNL1       -0.1250
     24 N          64.5815   91.3869   13.9151 N.ar    1  UNL1       -0.1220
     25 C          63.9036   90.9215   12.6606 C.ar    1  UNL1        0.1933
     26 N          64.3929   91.7723   11.5263 N.ar    1  UNL1       -0.2860
     27 C          63.9753   91.6528   10.0905 C.3     1  UNL1        0.1341
     28 C          67.8072   92.2242    9.9739 C.3     1  UNL1        0.0556
     29 C          67.2268   93.5616   10.3268 C.ar    1  UNL1        0.1001
     30 N          67.6631   94.8858    9.7737 N.ar    1  UNL1       -0.2085
     31 C          66.8141   95.9522   10.3998 C.ar    1  UNL1        0.2849
     32 O          65.8530   95.2870   11.3399 O.2     1  UNL1       -0.4283
     33 C          66.1080   93.8095   11.2948 C.ar    1  UNL1        0.1964
@<TRIPOS>BOND
     1    28    29    1
     2    29    30   ar
     3    30    31   ar
     4    31    32   ar
     5    32    33   ar
     6    33    22    1
     7    22    23   ar
     8    23    24   ar
     9    24    25   ar
    10    25    21    1
    11    21    20    1
    12    20    19    1
    13    19    18    1
    14    18     1    1
    15     1     2    1
    16     2     3    1
    17     4     3    1
    18     4     5    1
    19     5     6    1
    20     6     8    1
    21     8     9   ar
    22     9    10   ar
    23    10    11   ar
    24    11    14    1
    25    14    15    1
    26    14    16    1
    27    14    17    1
    28    11    12   ar
    29    12    13   ar
    30     4     7    1
    31    25    26   ar
    32    26    27    1
    33    33    29   ar
    34    26    22   ar
    35     7     1    1
    36     6     4    1
    37    13     8   ar
