@<TRIPOS>MOLECULE
*****
 33 35 0 0 0
SMALL
GASTEIGER

@<TRIPOS>ATOM
      1 C          60.0122   89.2295   10.5489 C.3     1  UNL1        0.1913
      2 S          61.2174   89.7469   11.2767 S.O2    1  UNL1        0.0457
      3 O          60.5135   89.5449   12.5858 O.2     1  UNL1       -0.1572
      4 O          61.9212   89.9489    9.9676 O.2     1  UNL1       -0.1572
      5 N          62.4226   90.2643   12.0046 N.3     1  UNL1       -0.1559
      6 C          62.6735   89.8550   13.4257 C.3     1  UNL1        0.1168
      7 C          63.8787   90.3724   14.1535 C.3     1  UNL1        0.1099
      8 N          64.8330   91.2991   13.4603 N.pl3   1  UNL1       -0.3045
      9 C          64.5820   91.7085   12.0392 C.3     1  UNL1        0.1099
     10 C          63.3769   91.1911   11.3114 C.3     1  UNL1        0.1168
     11 C          66.0382   91.8166   14.1882 C.ar    1  UNL1        0.0481
     12 C          65.9013   92.3434   15.5859 C.ar    1  UNL1        0.0168
     13 C          67.1066   92.8608   16.3138 C.ar    1  UNL1        0.0309
     14 C          68.4486   92.8513   15.6439 C.ar    1  UNL1        0.1402
     15 F          69.6538   93.3687   16.3718 F       1  UNL1       -0.2042
     16 C          68.5855   92.3245   14.2461 C.ar    1  UNL1        0.0309
     17 C          67.3803   91.8071   13.5183 C.ar    1  UNL1        0.0168
     18 C          60.0950   87.9446    9.7794 C.3     1  UNL1        0.1293
     19 N          59.7233   87.9151    8.3266 N.am    1  UNL1       -0.1645
     20 O          59.4033   86.6096    7.6606 O.3     1  UNL1       -0.2914
     21 C          59.6715   89.1910    7.5396 C.2     1  UNL1        0.3268
     22 O          59.2998   89.1614    6.0866 O.2     1  UNL1       -0.2627
     23 H          59.4834   85.8894    8.3055 H       1  UNL1        0.2417
     24 C          60.5496   86.6890   10.4630 C.3     1  UNL1        0.0318
     25 C          62.6103   86.3362    8.9204 C.3     1  UNL1        0.0080
     26 C          61.9487   86.1883   10.2586 C.3     1  UNL1        0.0604
     27 C          62.6863   85.5396   11.3922 C.ar    1  UNL1        0.1390
     28 N          63.0013   86.3265   12.6298 N.ar    1  UNL1       -0.2268
     29 C          63.7389   85.6778   13.7635 C.ar    1  UNL1        0.1314
     30 C          64.1614   84.2423   13.6596 C.ar    1  UNL1        0.1783
     31 F          64.8989   83.5936   14.7932 F       1  UNL1       -0.2009
     32 C          63.8463   83.4554   12.4220 C.ar    1  UNL1        0.1314
     33 N          63.1088   84.1042   11.2883 N.ar    1  UNL1       -0.2268
@<TRIPOS>BOND
     1    26    25    1
     2    26    24    1
     3    18    24    1
     4    18     1    1
     5     1     2    1
     6     2     3    2
     7     2     4    2
     8     2     5    1
     9     5     6    1
    10     6     7    1
    11     7     8    1
    12     8    11    1
    13    11    12   ar
    14    12    13   ar
    15    13    14   ar
    16    14    15    1
    17    14    16   ar
    18    16    17   ar
    19     8     9    1
    20     9    10    1
    21    18    19    1
    22    19    20    1
    23    19    21   am
    24    21    22    2
    25    26    27    1
    26    27    28   ar
    27    28    29   ar
    28    29    30   ar
    29    30    31    1
    30    30    32   ar
    31    32    33   ar
    32    10     5    1
    33    33    27   ar
    34    17    11   ar
    35    20    23    1
@<TRIPOS>MOLECULE
*****
 33 35 0 0 0
SMALL
GASTEIGER

@<TRIPOS>ATOM
      1 C          64.0257   90.9314   14.3831 C.3     1  UNL1        0.1913
      2 S          63.8589   89.4892   14.0064 S.O2    1  UNL1        0.0457
      3 O          65.0185   89.1255   14.8856 O.2     1  UNL1       -0.1572
      4 O          62.6994   89.8529   13.1272 O.2     1  UNL1       -0.1572
      5 N          63.6922   88.0468   13.6297 N.3     1  UNL1       -0.1559
      6 C          62.9821   87.6804   12.3603 C.3     1  UNL1        0.1168
      7 C          62.8154   86.2381   11.9836 C.3     1  UNL1        0.1099
      8 N          63.3589   85.1622   12.8764 N.pl3   1  UNL1       -0.3045
      9 C          64.0690   85.5285   14.1458 C.3     1  UNL1        0.1099
     10 C          64.2357   86.9708   14.5224 C.3     1  UNL1        0.1168
     11 C          63.1922   83.7198   12.4997 C.ar    1  UNL1        0.0481
     12 C          62.5946   82.7532   13.4787 C.ar    1  UNL1        0.0168
     13 C          62.4279   81.3108   13.1020 C.ar    1  UNL1        0.0309
     14 C          62.8588   80.8351   11.7463 C.ar    1  UNL1        0.1402
     15 F          62.6922   79.3928   11.3695 F       1  UNL1       -0.2042
     16 C          63.4564   81.8018   10.7672 C.ar    1  UNL1        0.0309
     17 C          63.6231   83.2441   11.1440 C.ar    1  UNL1        0.0168
     18 C          65.3106   91.6426   14.0780 C.3     1  UNL1        0.1293
     19 N          65.9611   92.4982   15.1243 N.am    1  UNL1       -0.1645
     20 O          65.2365   92.8010   16.4024 O.3     1  UNL1       -0.2914
     21 C          67.3361   93.0510   14.8927 C.2     1  UNL1        0.3268
     22 O          67.9866   93.9066   15.9391 O.2     1  UNL1       -0.2627
     23 H          64.3673   92.3705   16.3911 H       1  UNL1        0.2417
     24 C          65.9451   91.4982   12.7264 C.3     1  UNL1        0.0318
     25 C          64.0291   91.6623   10.9794 C.3     1  UNL1        0.0080
     26 C          65.3288   92.1664   11.5333 C.3     1  UNL1        0.0604
     27 C          66.0121   93.3388   10.8941 C.ar    1  UNL1        0.1390
     28 N          65.7852   94.7219   11.4284 N.ar    1  UNL1       -0.2268
     29 C          66.4685   95.8943   10.7892 C.ar    1  UNL1        0.1314
     30 C          67.3787   95.6836    9.6156 C.ar    1  UNL1        0.1783
     31 F          68.0620   96.8559    8.9764 F       1  UNL1       -0.2009
     32 C          67.6056   94.3004    9.0813 C.ar    1  UNL1        0.1314
     33 N          66.9222   93.1280    9.7206 N.ar    1  UNL1       -0.2268
@<TRIPOS>BOND
     1    26    25    1
     2    26    24    1
     3    18    24    1
     4    18     1    1
     5     1     2    1
     6     2     3    2
     7     2     4    2
     8     2     5    1
     9     5     6    1
    10     6     7    1
    11     7     8    1
    12     8    11    1
    13    11    12   ar
    14    12    13   ar
    15    13    14   ar
    16    14    15    1
    17    14    16   ar
    18    16    17   ar
    19     8     9    1
    20     9    10    1
    21    18    19    1
    22    19    20    1
    23    19    21   am
    24    21    22    2
    25    26    27    1
    26    27    28   ar
    27    28    29   ar
    28    29    30   ar
    29    30    31    1
    30    30    32   ar
    31    32    33   ar
    32    10     5    1
    33    33    27   ar
    34    17    11   ar
    35    20    23    1
@<TRIPOS>MOLECULE
*****
 33 35 0 0 0
SMALL
GASTEIGER

@<TRIPOS>ATOM
      1 C          60.8200   88.1551   10.7834 C.3     1  UNL1        0.1913
      2 S          61.9241   88.8814   11.4929 S.O2    1  UNL1        0.0457
      3 O          62.4230   87.5805   12.0484 O.2     1  UNL1       -0.1572
      4 O          61.4251   90.1824   10.9374 O.2     1  UNL1       -0.1572
      5 N          63.0282   89.6078   12.2024 N.3     1  UNL1       -0.1559
      6 C          63.5905   89.0554   13.4785 C.3     1  UNL1        0.1168
      7 C          64.6946   89.7818   14.1880 C.3     1  UNL1        0.1099
      8 N          65.2363   91.0606   13.6213 N.pl3   1  UNL1       -0.3045
      9 C          64.6740   91.6130   12.3452 C.3     1  UNL1        0.1099
     10 C          63.5699   90.8867   11.6357 C.3     1  UNL1        0.1168
     11 C          66.3405   91.7870   14.3308 C.ar    1  UNL1        0.0481
     12 C          66.0963   92.3844   15.6848 C.ar    1  UNL1        0.0168
     13 C          67.2004   93.1108   16.3943 C.ar    1  UNL1        0.0309
     14 C          68.5487   93.2397   15.7497 C.ar    1  UNL1        0.1402
     15 F          69.6528   93.9661   16.4592 F       1  UNL1       -0.2042
     16 C          68.7929   92.6423   14.3956 C.ar    1  UNL1        0.0309
     17 C          67.6888   91.9160   13.6862 C.ar    1  UNL1        0.0168
     18 C          61.0261   87.6619    9.3819 C.3     1  UNL1        0.1293
     19 N          59.9126   87.7581    8.3816 N.am    1  UNL1       -0.1645
     20 O          58.9603   86.6124    8.2067 O.3     1  UNL1       -0.2914
     21 C          59.7512   89.0001    7.5561 C.2     1  UNL1        0.3268
     22 O          58.6376   89.0963    6.5557 O.2     1  UNL1       -0.2627
     23 H          59.2038   85.8944    8.8117 H       1  UNL1        0.2417
     24 C          62.3459   87.0725    8.9807 C.3     1  UNL1        0.0318
     25 C          62.1365   85.0723    7.3358 C.3     1  UNL1        0.0080
     26 C          62.4571   85.6028    8.7017 C.3     1  UNL1        0.0604
     27 C          62.8890   84.6637    9.7887 C.ar    1  UNL1        0.1390
     28 N          63.9704   83.6581    9.5252 N.ar    1  UNL1       -0.2268
     29 C          64.4023   82.7190   10.6122 C.ar    1  UNL1        0.1314
     30 C          63.7527   82.7854   11.9627 C.ar    1  UNL1        0.1783
     31 F          64.1846   81.8463   13.0496 F       1  UNL1       -0.2009
     32 C          62.6713   83.7910   12.2261 C.ar    1  UNL1        0.1314
     33 N          62.2395   84.7302   11.1391 N.ar    1  UNL1       -0.2268
@<TRIPOS>BOND
     1    26    25    1
     2    26    24    1
     3    18    24    1
     4    18     1    1
     5     1     2    1
     6     2     3    2
     7     2     4    2
     8     2     5    1
     9     5     6    1
    10     6     7    1
    11     7     8    1
    12     8    11    1
    13    11    12   ar
    14    12    13   ar
    15    13    14   ar
    16    14    15    1
    17    14    16   ar
    18    16    17   ar
    19     8     9    1
    20     9    10    1
    21    18    19    1
    22    19    20    1
    23    19    21   am
    24    21    22    2
    25    26    27    1
    26    27    28   ar
    27    28    29   ar
    28    29    30   ar
    29    30    31    1
    30    30    32   ar
    31    32    33   ar
    32    10     5    1
    33    33    27   ar
    34    17    11   ar
    35    20    23    1
@<TRIPOS>MOLECULE
*****
 33 35 0 0 0
SMALL
GASTEIGER

@<TRIPOS>ATOM
      1 C          64.2806   90.1802   14.7896 C.3     1  UNL1        0.1913
      2 S          64.0643   88.7516   14.3871 S.O2    1  UNL1        0.0457
      3 O          64.4952   89.0803   12.9885 O.2     1  UNL1       -0.1572
      4 O          63.6334   88.4228   15.7857 O.2     1  UNL1       -0.1572
      5 N          63.8480   87.3228   13.9846 N.3     1  UNL1       -0.1559
      6 C          63.1697   87.0041   12.6852 C.3     1  UNL1        0.1168
      7 C          62.9534   85.5755   12.2828 C.3     1  UNL1        0.1099
      8 N          63.4154   84.4654   13.1796 N.pl3   1  UNL1       -0.3045
      9 C          64.0937   84.7841   14.4790 C.3     1  UNL1        0.1099
     10 C          64.3100   86.2128   14.8815 C.3     1  UNL1        0.1168
     11 C          63.1991   83.0367   12.7771 C.ar    1  UNL1        0.0481
     12 C          63.3781   82.6254   11.3458 C.ar    1  UNL1        0.0168
     13 C          63.1618   81.1967   10.9432 C.ar    1  UNL1        0.0309
     14 C          62.7665   80.1792   11.9721 C.ar    1  UNL1        0.1402
     15 F          62.5502   78.7505   11.5697 F       1  UNL1       -0.2042
     16 C          62.5876   80.5906   13.4035 C.ar    1  UNL1        0.0309
     17 C          62.8039   82.0192   13.8060 C.ar    1  UNL1        0.0168
     18 C          64.3550   91.2514   13.7422 C.3     1  UNL1        0.1293
     19 N          63.4923   91.1649   12.5183 N.am    1  UNL1       -0.1645
     20 O          62.1033   90.6073   12.6176 O.3     1  UNL1       -0.2914
     21 C          64.0184   91.6360   11.1949 C.2     1  UNL1        0.3268
     22 O          63.1556   91.5495    9.9709 O.2     1  UNL1       -0.2627
     23 H          61.9224   90.3518   13.5357 H       1  UNL1        0.2417
     24 C          65.2923   92.4092   13.9188 C.3     1  UNL1        0.0318
     25 C          67.7726   91.6517   14.0755 C.3     1  UNL1        0.0080
     26 C          66.6727   92.3526   13.3345 C.3     1  UNL1        0.0604
     27 C          66.9531   92.9968   12.0093 C.ar    1  UNL1        0.1390
     28 N          67.7143   92.2465   10.9568 N.ar    1  UNL1       -0.2268
     29 C          67.9948   92.8907    9.6315 C.ar    1  UNL1        0.1314
     30 C          67.5140   94.2852    9.3587 C.ar    1  UNL1        0.1783
     31 F          67.7945   94.9294    8.0335 F       1  UNL1       -0.2009
     32 C          66.7528   95.0354   10.4112 C.ar    1  UNL1        0.1314
     33 N          66.4724   94.3912   11.7365 N.ar    1  UNL1       -0.2268
@<TRIPOS>BOND
     1    26    25    1
     2    26    24    1
     3    18    24    1
     4    18     1    1
     5     1     2    1
     6     2     3    2
     7     2     4    2
     8     2     5    1
     9     5     6    1
    10     6     7    1
    11     7     8    1
    12     8    11    1
    13    11    12   ar
    14    12    13   ar
    15    13    14   ar
    16    14    15    1
    17    14    16   ar
    18    16    17   ar
    19     8     9    1
    20     9    10    1
    21    18    19    1
    22    19    20    1
    23    19    21   am
    24    21    22    2
    25    26    27    1
    26    27    28   ar
    27    28    29   ar
    28    29    30   ar
    29    30    31    1
    30    30    32   ar
    31    32    33   ar
    32    10     5    1
    33    33    27   ar
    34    17    11   ar
    35    20    23    1
@<TRIPOS>MOLECULE
*****
 33 35 0 0 0
SMALL
GASTEIGER

@<TRIPOS>ATOM
      1 C          63.9832   90.9358   13.5109 C.3     1  UNL1        0.1913
      2 S          63.7955   89.4477   13.4958 S.O2    1  UNL1        0.0457
      3 O          62.5237   89.6160   12.7185 O.2     1  UNL1       -0.1572
      4 O          65.0672   89.2793   14.2730 O.2     1  UNL1       -0.1572
      5 N          63.6077   87.9595   13.4805 N.3     1  UNL1       -0.1559
      6 C          64.1378   87.1251   14.6087 C.3     1  UNL1        0.1168
      7 C          63.9500   85.6370   14.5934 C.3     1  UNL1        0.1099
      8 N          63.2322   84.9833   13.4500 N.pl3   1  UNL1       -0.3045
      9 C          62.7021   85.8177   12.3219 C.3     1  UNL1        0.1099
     10 C          62.8898   87.3058   12.3371 C.3     1  UNL1        0.1168
     11 C          63.0444   83.4951   13.4348 C.ar    1  UNL1        0.0481
     12 C          62.0508   82.8551   14.3583 C.ar    1  UNL1        0.0168
     13 C          61.8630   81.3669   14.3431 C.ar    1  UNL1        0.0309
     14 C          62.6689   80.5189   13.4043 C.ar    1  UNL1        0.1402
     15 F          62.4812   79.0308   13.3891 F       1  UNL1       -0.2042
     16 C          63.6626   81.1590   12.4808 C.ar    1  UNL1        0.0309
     17 C          63.8503   82.6471   12.4960 C.ar    1  UNL1        0.0168
     18 C          64.8008   91.5995   12.4428 C.3     1  UNL1        0.1293
     19 N          64.2029   91.8562   11.0913 N.am    1  UNL1       -0.1645
     20 O          64.6428   93.0455   10.2901 O.3     1  UNL1       -0.2914
     21 C          63.1650   90.9235   10.5410 C.2     1  UNL1        0.3268
     22 O          62.5671   91.1801    9.1894 O.2     1  UNL1       -0.2627
     23 H          65.3135   93.5399   10.7868 H       1  UNL1        0.2417
     24 C          66.2165   92.0067   12.7263 C.3     1  UNL1        0.0318
     25 C          66.7150   94.0663   14.2294 C.3     1  UNL1        0.0080
     26 C          66.5655   93.4588   12.8661 C.3     1  UNL1        0.0604
     27 C          66.7650   94.3034   11.6426 C.ar    1  UNL1        0.1390
     28 N          67.5808   93.7826   10.4966 N.ar    1  UNL1       -0.2268
     29 C          67.7803   94.6272    9.2732 C.ar    1  UNL1        0.1314
     30 C          67.1641   95.9926    9.1957 C.ar    1  UNL1        0.1783
     31 F          67.3636   96.8372    7.9723 F       1  UNL1       -0.2009
     32 C          66.3484   96.5134   10.3418 C.ar    1  UNL1        0.1314
     33 N          66.1488   95.6687   11.5652 N.ar    1  UNL1       -0.2268
@<TRIPOS>BOND
     1    26    25    1
     2    26    24    1
     3    18    24    1
     4    18     1    1
     5     1     2    1
     6     2     3    2
     7     2     4    2
     8     2     5    1
     9     5     6    1
    10     6     7    1
    11     7     8    1
    12     8    11    1
    13    11    12   ar
    14    12    13   ar
    15    13    14   ar
    16    14    15    1
    17    14    16   ar
    18    16    17   ar
    19     8     9    1
    20     9    10    1
    21    18    19    1
    22    19    20    1
    23    19    21   am
    24    21    22    2
    25    26    27    1
    26    27    28   ar
    27    28    29   ar
    28    29    30   ar
    29    30    31    1
    30    30    32   ar
    31    32    33   ar
    32    10     5    1
    33    33    27   ar
    34    17    11   ar
    35    20    23    1
@<TRIPOS>MOLECULE
*****
 33 35 0 0 0
SMALL
GASTEIGER

@<TRIPOS>ATOM
      1 C          63.2190   89.4756   15.6563 C.3     1  UNL1        0.1913
      2 S          63.8078   90.3981   14.6305 S.O2    1  UNL1        0.0457
      3 O          62.7517   89.9819   13.6500 O.2     1  UNL1       -0.1572
      4 O          64.8639   90.8144   15.6110 O.2     1  UNL1       -0.1572
      5 N          64.3965   91.3207   13.6046 N.3     1  UNL1       -0.1559
      6 C          63.8920   91.2916   12.1923 C.3     1  UNL1        0.1168
      7 C          64.4808   92.2141   11.1665 C.3     1  UNL1        0.1099
      8 N          65.5740   93.1657   11.5530 N.pl3   1  UNL1       -0.3045
      9 C          66.0784   93.1948   12.9653 C.3     1  UNL1        0.1099
     10 C          65.4897   92.2723   13.9911 C.3     1  UNL1        0.1168
     11 C          66.1627   94.0883   10.5271 C.ar    1  UNL1        0.0481
     12 C          65.7109   95.5168   10.4558 C.ar    1  UNL1        0.0168
     13 C          66.2996   96.4394    9.4300 C.ar    1  UNL1        0.0309
     14 C          67.3402   95.9333    8.4754 C.ar    1  UNL1        0.1402
     15 F          67.9289   96.8558    7.4496 F       1  UNL1       -0.2042
     16 C          67.7920   94.5047    8.5467 C.ar    1  UNL1        0.0309
     17 C          67.2033   93.5822    9.5726 C.ar    1  UNL1        0.0168
     18 C          63.4970   88.0032   15.5883 C.3     1  UNL1        0.1293
     19 N          62.9682   87.0901   16.6544 N.am    1  UNL1       -0.1645
     20 O          62.4423   85.7340   16.2875 O.3     1  UNL1       -0.2914
     21 C          62.9652   87.5330   18.0875 C.2     1  UNL1        0.3268
     22 O          62.4364   86.6199   19.1537 O.2     1  UNL1       -0.2627
     23 H          62.5161   85.6072   15.3286 H       1  UNL1        0.2417
     24 C          64.3037   87.4438   14.4541 C.3     1  UNL1        0.0318
     25 C          66.1920   85.8335   15.2232 C.3     1  UNL1        0.0080
     26 C          64.8710   86.0584   14.5490 C.3     1  UNL1        0.0604
     27 C          64.1174   84.8981   13.9697 C.ar    1  UNL1        0.1390
     28 N          64.0757   83.5898   14.7024 N.ar    1  UNL1       -0.2268
     29 C          63.3222   82.4295   14.1231 C.ar    1  UNL1        0.1314
     30 C          62.6102   82.5773   12.8111 C.ar    1  UNL1        0.1783
     31 F          61.8566   81.4170   12.2318 F       1  UNL1       -0.2009
     32 C          62.6519   83.8855   12.0784 C.ar    1  UNL1        0.1314
     33 N          63.4055   85.0459   12.6578 N.ar    1  UNL1       -0.2268
@<TRIPOS>BOND
     1    26    25    1
     2    26    24    1
     3    18    24    1
     4    18     1    1
     5     1     2    1
     6     2     3    2
     7     2     4    2
     8     2     5    1
     9     5     6    1
    10     6     7    1
    11     7     8    1
    12     8    11    1
    13    11    12   ar
    14    12    13   ar
    15    13    14   ar
    16    14    15    1
    17    14    16   ar
    18    16    17   ar
    19     8     9    1
    20     9    10    1
    21    18    19    1
    22    19    20    1
    23    19    21   am
    24    21    22    2
    25    26    27    1
    26    27    28   ar
    27    28    29   ar
    28    29    30   ar
    29    30    31    1
    30    30    32   ar
    31    32    33   ar
    32    10     5    1
    33    33    27   ar
    34    17    11   ar
    35    20    23    1
@<TRIPOS>MOLECULE
*****
 33 35 0 0 0
SMALL
GASTEIGER

@<TRIPOS>ATOM
      1 C          60.9036   88.1205   10.7305 C.3     1  UNL1        0.1913
      2 S          61.9964   88.8671   11.4364 S.O2    1  UNL1        0.0457
      3 O          60.9846   89.4695   12.3655 O.2     1  UNL1       -0.1572
      4 O          63.0082   88.2647   10.5072 O.2     1  UNL1       -0.1572
      5 N          63.0892   89.6139   12.1423 N.3     1  UNL1       -0.1559
      6 C          63.6244   90.8881   11.5595 C.3     1  UNL1        0.1168
      7 C          64.7172   91.6348   12.2654 C.3     1  UNL1        0.1099
      8 N          65.2746   91.1072   13.5542 N.pl3   1  UNL1       -0.3045
      9 C          64.7393   89.8329   14.1370 C.3     1  UNL1        0.1099
     10 C          63.6466   89.0863   13.4311 C.3     1  UNL1        0.1168
     11 C          66.3674   91.8539   14.2601 C.ar    1  UNL1        0.0481
     12 C          67.7309   91.9493   13.6423 C.ar    1  UNL1        0.0168
     13 C          68.8236   92.6961   14.3482 C.ar    1  UNL1        0.0309
     14 C          68.5529   93.3474   15.6720 C.ar    1  UNL1        0.1402
     15 F          69.6456   94.0941   16.3780 F       1  UNL1       -0.2042
     16 C          67.1893   93.2519   16.2899 C.ar    1  UNL1        0.0309
     17 C          66.0966   92.5052   15.5840 C.ar    1  UNL1        0.0168
     18 C          61.0998   86.6815   10.3551 C.3     1  UNL1        0.1293
     19 N          61.3078   86.3027    8.9188 N.am    1  UNL1       -0.1645
     20 O          62.6976   86.1999    8.3639 O.3     1  UNL1       -0.2914
     21 C          60.1260   86.0267    8.0372 C.2     1  UNL1        0.3268
     22 O          60.3340   85.6478    6.6008 O.2     1  UNL1       -0.2627
     23 H          63.3400   86.4083    9.0602 H       1  UNL1        0.2417
     24 C          61.0880   85.6213   11.4163 C.3     1  UNL1        0.0318
     25 C          63.2579   84.2788   10.9270 C.3     1  UNL1        0.0080
     26 C          62.3779   85.0197   11.8897 C.3     1  UNL1        0.0604
     27 C          62.7879   85.1589   13.3258 C.ar    1  UNL1        0.1390
     28 N          63.9794   85.9950   13.6880 N.ar    1  UNL1       -0.2268
     29 C          64.3894   86.1342   15.1241 C.ar    1  UNL1        0.1314
     30 C          63.6078   85.4373   16.1982 C.ar    1  UNL1        0.1783
     31 F          64.0178   85.5765   17.6343 F       1  UNL1       -0.2009
     32 C          62.4163   84.6012   15.8360 C.ar    1  UNL1        0.1314
     33 N          62.0063   84.4620   14.3998 N.ar    1  UNL1       -0.2268
@<TRIPOS>BOND
     1    26    25    1
     2    26    24    1
     3    18    24    1
     4    18     1    1
     5     1     2    1
     6     2     3    2
     7     2     4    2
     8     2     5    1
     9     5     6    1
    10     6     7    1
    11     7     8    1
    12     8    11    1
    13    11    12   ar
    14    12    13   ar
    15    13    14   ar
    16    14    15    1
    17    14    16   ar
    18    16    17   ar
    19     8     9    1
    20     9    10    1
    21    18    19    1
    22    19    20    1
    23    19    21   am
    24    21    22    2
    25    26    27    1
    26    27    28   ar
    27    28    29   ar
    28    29    30   ar
    29    30    31    1
    30    30    32   ar
    31    32    33   ar
    32    10     5    1
    33    33    27   ar
    34    17    11   ar
    35    20    23    1
@<TRIPOS>MOLECULE
*****
 33 35 0 0 0
SMALL
GASTEIGER

@<TRIPOS>ATOM
      1 C          61.0682   88.3178   10.8934 C.3     1  UNL1        0.1913
      2 S          62.1477   89.0882   11.5942 S.O2    1  UNL1        0.0457
      3 O          61.1407   89.6026   12.5798 O.2     1  UNL1       -0.1572
      4 O          63.1546   88.5738   10.6086 O.2     1  UNL1       -0.1572
      5 N          63.2272   89.8586   12.2951 N.3     1  UNL1       -0.1559
      6 C          63.7849   89.3561   13.5937 C.3     1  UNL1        0.1168
      7 C          64.8644   90.1265   14.2944 C.3     1  UNL1        0.1099
      8 N          65.3861   91.3995   13.6967 N.pl3   1  UNL1       -0.3045
      9 C          64.8284   91.9020   12.3981 C.3     1  UNL1        0.1099
     10 C          63.7490   91.1316   11.6973 C.3     1  UNL1        0.1168
     11 C          66.4657   92.1699   14.3975 C.ar    1  UNL1        0.0481
     12 C          67.4441   91.4550   15.2815 C.ar    1  UNL1        0.0168
     13 C          68.5236   92.2254   15.9824 C.ar    1  UNL1        0.0309
     14 C          68.6247   93.7108   15.7992 C.ar    1  UNL1        0.1402
     15 F          69.7041   94.4812   16.5000 F       1  UNL1       -0.2042
     16 C          67.6461   94.4257   14.9151 C.ar    1  UNL1        0.0309
     17 C          66.5667   93.6552   14.2143 C.ar    1  UNL1        0.0168
     18 C          61.2000   86.8342   10.7160 C.3     1  UNL1        0.1293
     19 N          61.3003   86.2496    9.3382 N.am    1  UNL1       -0.1645
     20 O          62.6090   85.7043    8.8484 O.3     1  UNL1       -0.2914
     21 C          60.0920   86.2104    8.4503 C.2     1  UNL1        0.3268
     22 O          60.1924   85.6258    7.0725 O.2     1  UNL1       -0.2627
     23 H          63.2812   85.8063    9.5403 H       1  UNL1        0.2417
     24 C          61.2315   85.9352   11.9163 C.3     1  UNL1        0.0318
     25 C          63.6430   85.9923   12.8815 C.3     1  UNL1        0.0080
     26 C          62.4991   85.2245   12.2880 C.3     1  UNL1        0.0604
     27 C          62.6228   83.7462   12.0664 C.ar    1  UNL1        0.1390
     28 N          62.1813   82.7883   13.1329 N.ar    1  UNL1       -0.2268
     29 C          62.3050   81.3100   12.9112 C.ar    1  UNL1        0.1314
     30 C          62.8703   80.7895   11.6229 C.ar    1  UNL1        0.1783
     31 F          62.9941   79.3112   11.4013 F       1  UNL1       -0.2009
     32 C          63.3119   81.7474   10.5564 C.ar    1  UNL1        0.1314
     33 N          63.1881   83.2258   10.7781 N.ar    1  UNL1       -0.2268
@<TRIPOS>BOND
     1    26    25    1
     2    26    24    1
     3    18    24    1
     4    18     1    1
     5     1     2    1
     6     2     3    2
     7     2     4    2
     8     2     5    1
     9     5     6    1
    10     6     7    1
    11     7     8    1
    12     8    11    1
    13    11    12   ar
    14    12    13   ar
    15    13    14   ar
    16    14    15    1
    17    14    16   ar
    18    16    17   ar
    19     8     9    1
    20     9    10    1
    21    18    19    1
    22    19    20    1
    23    19    21   am
    24    21    22    2
    25    26    27    1
    26    27    28   ar
    27    28    29   ar
    28    29    30   ar
    29    30    31    1
    30    30    32   ar
    31    32    33   ar
    32    10     5    1
    33    33    27   ar
    34    17    11   ar
    35    20    23    1
@<TRIPOS>MOLECULE
*****
 33 35 0 0 0
SMALL
GASTEIGER

@<TRIPOS>ATOM
      1 C          63.8595   90.7230   13.1216 C.3     1  UNL1        0.1913
      2 S          63.6581   89.2368   13.0970 S.O2    1  UNL1        0.0457
      3 O          63.7827   89.2446   11.6022 O.2     1  UNL1       -0.1572
      4 O          63.5335   89.2290   14.5918 O.2     1  UNL1       -0.1572
      5 N          63.4567   87.7505   13.0724 N.3     1  UNL1       -0.1559
      6 C          64.0412   86.8964   14.1581 C.3     1  UNL1        0.1168
      7 C          63.8398   85.4102   14.1334 C.3     1  UNL1        0.1099
      8 N          63.0538   84.7782   13.0231 N.pl3   1  UNL1       -0.3045
      9 C          62.4693   85.6323   11.9374 C.3     1  UNL1        0.1099
     10 C          62.6707   87.1185   11.9621 C.3     1  UNL1        0.1168
     11 C          62.8524   83.2919   12.9984 C.ar    1  UNL1        0.0481
     12 C          63.1878   82.5100   11.7631 C.ar    1  UNL1        0.0168
     13 C          62.9864   81.0237   11.7385 C.ar    1  UNL1        0.0309
     14 C          62.4496   80.3195   12.9492 C.ar    1  UNL1        0.1402
     15 F          62.2482   78.8333   12.9247 F       1  UNL1       -0.2042
     16 C          62.1142   81.1015   14.1846 C.ar    1  UNL1        0.0309
     17 C          62.3156   82.5877   14.2092 C.ar    1  UNL1        0.0168
     18 C          63.6447   91.5297   11.8753 C.3     1  UNL1        0.1293
     19 N          62.5429   91.1637   10.9256 N.am    1  UNL1       -0.1645
     20 O          62.7822   91.2101    9.4455 O.3     1  UNL1       -0.2914
     21 C          61.2017   90.7513   11.4559 C.2     1  UNL1        0.3268
     22 O          60.0999   90.3854   10.5061 O.2     1  UNL1       -0.2627
     23 H          63.6937   91.4941    9.2741 H       1  UNL1        0.2417
     24 C          64.5318   92.7024   11.5788 C.3     1  UNL1        0.0318
     25 C          66.7934   92.4254   10.3303 C.3     1  UNL1        0.0080
     26 C          66.0229   92.5422   11.6121 C.3     1  UNL1        0.0604
     27 C          66.7434   92.4987   12.9269 C.ar    1  UNL1        0.1390
     28 N          68.1372   91.9494   13.0006 N.ar    1  UNL1       -0.2268
     29 C          68.8577   91.9059   14.3154 C.ar    1  UNL1        0.1314
     30 C          68.1844   92.4119   15.5568 C.ar    1  UNL1        0.1783
     31 F          68.9049   92.3684   16.8716 F       1  UNL1       -0.2009
     32 C          66.7906   92.9612   15.4831 C.ar    1  UNL1        0.1314
     33 N          66.0701   93.0047   14.1681 N.ar    1  UNL1       -0.2268
@<TRIPOS>BOND
     1    26    25    1
     2    26    24    1
     3    18    24    1
     4    18     1    1
     5     1     2    1
     6     2     3    2
     7     2     4    2
     8     2     5    1
     9     5     6    1
    10     6     7    1
    11     7     8    1
    12     8    11    1
    13    11    12   ar
    14    12    13   ar
    15    13    14   ar
    16    14    15    1
    17    14    16   ar
    18    16    17   ar
    19     8     9    1
    20     9    10    1
    21    18    19    1
    22    19    20    1
    23    19    21   am
    24    21    22    2
    25    26    27    1
    26    27    28   ar
    27    28    29   ar
    28    29    30   ar
    29    30    31    1
    30    30    32   ar
    31    32    33   ar
    32    10     5    1
    33    33    27   ar
    34    17    11   ar
    35    20    23    1
