@<TRIPOS>MOLECULE
*****
 46 49 0 0 0
SMALL
GASTEIGER

@<TRIPOS>ATOM
      1 N          62.5286   87.8752   12.1190 N.3     1  UNL1       -0.2699
      2 C          63.8397   87.5212   12.7561 C.3     1  UNL1        0.0924
      3 C          64.1332   87.9583   14.1606 C.3     1  UNL1        0.0950
      4 N          64.3291   89.4134   14.4679 N.am    1  UNL1       -0.2706
      5 C          63.4036   90.1098   15.4210 C.2     1  UNL1        0.4020
      6 O          62.2824   89.3512   16.0669 O.2     1  UNL1       -0.2264
      7 H          65.0650   89.9113   14.0439 H       1  UNL1        0.1527
      8 O          63.5995   91.5649   15.7282 O.3     1  UNL1       -0.4274
      9 C          64.8577   92.0265   16.4019 C.3     1  UNL1        0.2621
     10 C          66.1275   92.1529   15.6135 C.ar    1  UNL1        0.1323
     11 N          66.4055   91.5201   14.2822 N.ar    1  UNL1       -0.2374
     12 C          67.7922   91.9104   13.8640 C.ar    1  UNL1        0.1062
     13 C          68.3712   92.7843   14.9368 C.ar    1  UNL1        0.0573
     14 S          67.3424   92.9342   16.0181 S.2     1  UNL1       -0.0666
     15 C          64.2310   86.9403   15.2580 C.3     1  UNL1        0.0474
     16 C          63.9427   85.4968   14.9698 C.ar    1  UNL1       -0.0205
     17 C          62.6721   84.8723   15.4654 C.ar    1  UNL1       -0.0042
     18 C          62.3837   83.4287   15.1771 C.ar    1  UNL1       -0.0003
     19 C          63.3660   82.6097   14.3933 C.ar    1  UNL1       -0.0000
     20 C          64.6366   83.2342   13.8977 C.ar    1  UNL1       -0.0003
     21 C          64.9249   84.6777   14.1860 C.ar    1  UNL1       -0.0042
     22 C          62.0127   89.2815   12.1963 C.3     1  UNL1        0.0924
     23 C          61.8269   90.0822   10.9416 C.3     1  UNL1        0.0950
     24 N          63.0107   90.7192   10.2761 N.am    1  UNL1       -0.2706
     25 C          63.9333   91.5978   11.0678 C.2     1  UNL1        0.4020
     26 O          63.6722   91.8394   12.5250 O.2     1  UNL1       -0.2264
     27 H          63.1821   90.5605    9.3198 H       1  UNL1        0.1527
     28 O          65.1172   92.2347   10.4024 O.3     1  UNL1       -0.4291
     29 C          65.8871   93.3097   11.1105 C.3     1  UNL1        0.2447
     30 C          66.4892   94.4398   10.3290 C.ar    1  UNL1        0.0714
     31 C          67.4021   94.3059    9.1463 C.ar    1  UNL1        0.1053
     32 N          67.7611   95.6853    8.6794 N.ar    1  UNL1       -0.2350
     33 C          67.0701   96.6718    9.5735 C.ar    1  UNL1        0.1343
     34 S          66.2840   95.9020   10.5930 S.2     1  UNL1       -0.0652
     35 C          60.4572   90.2461   10.3523 C.3     1  UNL1        0.0474
     36 C          59.9728   89.2899    9.3031 C.ar    1  UNL1       -0.0205
     37 C          59.5290   87.9109    9.6924 C.ar    1  UNL1       -0.0042
     38 C          59.0446   86.9547    8.6431 C.ar    1  UNL1       -0.0003
     39 C          59.0041   87.3774    7.2045 C.ar    1  UNL1       -0.0000
     40 C          59.4480   88.7563    6.8151 C.ar    1  UNL1       -0.0003
     41 C          59.9324   89.7126    7.8644 C.ar    1  UNL1       -0.0042
     42 C          61.7336   86.8228   11.4046 C.3     1  UNL1        0.0721
     43 C          62.5926   86.8437    9.4650 C.3     1  UNL1        0.0014
     44 C          62.4306   85.8126   10.5422 C.3     1  UNL1        0.0147
     45 C          62.2687   84.7814   11.6194 C.3     1  UNL1        0.0014
     46 C          63.1276   84.8023    9.6800 C.3     1  UNL1        0.0014
@<TRIPOS>BOND
     1    43    44    1
     2    44    45    1
     3    44    46    1
     4    44    42    1
     5    42     1    1
     6     1    22    1
     7    22    23    1
     8    23    35    1
     9    35    36    1
    10    36    37   ar
    11    37    38   ar
    12    38    39   ar
    13    39    40   ar
    14    40    41   ar
    15    23    24    1
    16    24    25   am
    17    25    26    2
    18    25    28    1
    19    28    29    1
    20    29    30    1
    21    30    31   ar
    22    31    32   ar
    23    32    33   ar
    24    33    34   ar
    25     1     2    1
    26     2     3    1
    27     3    15    1
    28    15    16    1
    29    16    17   ar
    30    17    18   ar
    31    18    19   ar
    32    19    20   ar
    33    20    21   ar
    34     3     4    1
    35     4     5   am
    36     5     6    2
    37     5     8    1
    38     8     9    1
    39     9    10    1
    40    10    11   ar
    41    11    12   ar
    42    12    13   ar
    43    13    14   ar
    44    41    36   ar
    45    34    30   ar
    46    21    16   ar
    47    14    10   ar
    48    24    27    1
    49     4     7    1
@<TRIPOS>MOLECULE
*****
 46 49 0 0 0
SMALL
GASTEIGER

@<TRIPOS>ATOM
      1 N          62.9093   86.1944   12.2840 N.3     1  UNL1       -0.2699
      2 C          63.8302   85.3772   13.1408 C.3     1  UNL1        0.0924
      3 C          63.7321   85.4571   14.6355 C.3     1  UNL1        0.0950
      4 N          63.9770   86.7614   15.3345 N.am    1  UNL1       -0.2706
      5 C          63.0530   87.2120   16.4268 C.2     1  UNL1        0.4020
      6 O          61.8841   86.3582   16.8200 O.2     1  UNL1       -0.2264
      7 H          64.7442   87.3217   15.0765 H       1  UNL1        0.1527
      8 O          63.2979   88.5163   17.1259 O.3     1  UNL1       -0.4274
      9 C          62.9769   89.8089   16.4360 C.3     1  UNL1        0.2621
     10 C          64.0720   90.6097   15.7962 C.ar    1  UNL1        0.1323
     11 N          64.5033   91.9899   16.1949 N.ar    1  UNL1       -0.2374
     12 C          65.6260   92.4042   15.2904 C.ar    1  UNL1        0.1062
     13 C          65.8886   91.2800   14.3327 C.ar    1  UNL1        0.0573
     14 S          64.9282   90.1709   14.6452 S.2     1  UNL1       -0.0666
     15 C          63.3890   84.2325   15.4311 C.3     1  UNL1        0.0474
     16 C          63.0690   82.9467   14.7281 C.ar    1  UNL1       -0.0205
     17 C          64.1637   82.1571   14.0739 C.ar    1  UNL1       -0.0042
     18 C          63.8437   80.8712   13.3709 C.ar    1  UNL1       -0.0003
     19 C          62.4290   80.3750   13.3222 C.ar    1  UNL1       -0.0000
     20 C          61.3343   81.1647   13.9765 C.ar    1  UNL1       -0.0003
     21 C          61.6543   82.4505   14.6794 C.ar    1  UNL1       -0.0042
     22 C          62.7785   87.6701   12.5191 C.3     1  UNL1        0.0924
     23 C          62.1622   88.5452   11.4682 C.3     1  UNL1        0.0950
     24 N          63.0224   89.4835   10.6747 N.am    1  UNL1       -0.2706
     25 C          63.2795   90.8728   11.1783 C.2     1  UNL1        0.4020
     26 O          62.6765   91.3239   12.4756 O.2     1  UNL1       -0.2264
     27 H          63.4182   89.1874    9.8232 H       1  UNL1        0.1527
     28 O          64.1396   91.8111   10.3848 O.3     1  UNL1       -0.4291
     29 C          65.1411   92.6826   11.0830 C.3     1  UNL1        0.2447
     30 C          66.4169   93.0617   10.3911 C.ar    1  UNL1        0.0714
     31 C          67.6769   92.2485   10.3575 C.ar    1  UNL1        0.1053
     32 N          68.6954   93.0047    9.5570 N.ar    1  UNL1       -0.2350
     33 C          68.0649   94.2854    9.0960 C.ar    1  UNL1        0.1343
     34 S          66.6567   94.3205    9.6115 S.2     1  UNL1       -0.0652
     35 C          60.6858   88.4821   11.2109 C.3     1  UNL1        0.0474
     36 C          60.1748   88.3212    9.8099 C.ar    1  UNL1       -0.0205
     37 C          59.6127   87.0042    9.3631 C.ar    1  UNL1       -0.0042
     38 C          59.1017   86.8433    7.9621 C.ar    1  UNL1       -0.0003
     39 C          59.1529   87.9994    7.0077 C.ar    1  UNL1       -0.0000
     40 C          59.7150   89.3164    7.4544 C.ar    1  UNL1       -0.0003
     41 C          60.2259   89.4773    8.8555 C.ar    1  UNL1       -0.0042
     42 C          62.1193   85.5360   11.1921 C.3     1  UNL1        0.0721
     43 C          62.8852   83.5671   10.9999 C.3     1  UNL1        0.0014
     44 C          62.8256   84.7735   10.1105 C.3     1  UNL1        0.0147
     45 C          62.7660   85.9799    9.2212 C.3     1  UNL1        0.0014
     46 C          63.5318   84.0111    9.0290 C.3     1  UNL1        0.0014
@<TRIPOS>BOND
     1    43    44    1
     2    44    45    1
     3    44    46    1
     4    44    42    1
     5    42     1    1
     6     1    22    1
     7    22    23    1
     8    23    35    1
     9    35    36    1
    10    36    37   ar
    11    37    38   ar
    12    38    39   ar
    13    39    40   ar
    14    40    41   ar
    15    23    24    1
    16    24    25   am
    17    25    26    2
    18    25    28    1
    19    28    29    1
    20    29    30    1
    21    30    31   ar
    22    31    32   ar
    23    32    33   ar
    24    33    34   ar
    25     1     2    1
    26     2     3    1
    27     3    15    1
    28    15    16    1
    29    16    17   ar
    30    17    18   ar
    31    18    19   ar
    32    19    20   ar
    33    20    21   ar
    34     3     4    1
    35     4     5   am
    36     5     6    2
    37     5     8    1
    38     8     9    1
    39     9    10    1
    40    10    11   ar
    41    11    12   ar
    42    12    13   ar
    43    13    14   ar
    44    41    36   ar
    45    34    30   ar
    46    21    16   ar
    47    14    10   ar
    48    24    27    1
    49     4     7    1
@<TRIPOS>MOLECULE
*****
 46 49 0 0 0
SMALL
GASTEIGER

@<TRIPOS>ATOM
      1 N          62.3424   85.8804   12.1207 N.3     1  UNL1       -0.2699
      2 C          62.9256   87.2616   12.0744 C.3     1  UNL1        0.0924
      3 C          62.2897   88.3159   11.2178 C.3     1  UNL1        0.0950
      4 N          63.1427   89.3473   10.5406 N.am    1  UNL1       -0.2706
      5 C          63.2130   90.7410   11.0905 C.2     1  UNL1        0.4020
      6 O          62.4302   91.1035   12.3176 O.2     1  UNL1       -0.2264
      7 H          63.6565   89.1094    9.7352 H       1  UNL1        0.1527
      8 O          64.0660   91.7724   10.4133 O.3     1  UNL1       -0.4274
      9 C          65.2081   92.4041   11.1527 C.3     1  UNL1        0.2621
     10 C          66.4063   92.9006   10.3992 C.ar    1  UNL1        0.1323
     11 N          67.6137   92.0906   10.0302 N.ar    1  UNL1       -0.2374
     12 C          68.5611   92.9837    9.2854 C.ar    1  UNL1        0.1062
     13 C          67.9394   94.3457    9.1942 C.ar    1  UNL1        0.0573
     14 S          66.6076   94.2944    9.8825 S.2     1  UNL1       -0.0666
     15 C          60.8006   88.3390   11.0383 C.3     1  UNL1        0.0474
     16 C          60.2090   88.2316    9.6641 C.ar    1  UNL1       -0.0205
     17 C          59.6199   86.9323    9.2007 C.ar    1  UNL1       -0.0042
     18 C          59.0283   86.8249    7.8264 C.ar    1  UNL1       -0.0003
     19 C          59.0259   88.0167    6.9156 C.ar    1  UNL1       -0.0000
     20 C          59.6151   89.3160    7.3791 C.ar    1  UNL1       -0.0003
     21 C          60.2066   89.4234    8.7533 C.ar    1  UNL1       -0.0042
     22 C          62.1027   85.2114   13.4417 C.3     1  UNL1        0.0924
     23 C          63.1970   85.1609   14.4663 C.3     1  UNL1        0.0950
     24 N          63.5961   86.4071   15.1995 N.am    1  UNL1       -0.2706
     25 C          62.8829   86.7963   16.4604 C.2     1  UNL1        0.4020
     26 O          61.7708   85.9393   16.9882 O.2     1  UNL1       -0.2264
     27 H          64.3260   86.9696   14.8531 H       1  UNL1        0.1527
     28 O          63.2820   88.0425   17.1937 O.3     1  UNL1       -0.4291
     29 C          62.8562   89.3851   16.6777 C.3     1  UNL1        0.2447
     30 C          63.8375   90.2538   15.9479 C.ar    1  UNL1        0.0714
     31 C          64.2420   91.6452   16.3357 C.ar    1  UNL1        0.1053
     32 N          65.2411   92.1349   15.3297 N.ar    1  UNL1       -0.2350
     33 C          65.4540   91.0461   14.3201 C.ar    1  UNL1        0.1343
     34 S          64.5866   89.8835   14.7022 S.2     1  UNL1       -0.0652
     35 C          63.8923   83.8640   14.7577 C.3     1  UNL1        0.0474
     36 C          63.2593   82.5660   14.3524 C.ar    1  UNL1       -0.0205
     37 C          61.7937   82.3425   14.5813 C.ar    1  UNL1       -0.0042
     38 C          61.1607   81.0445   14.1760 C.ar    1  UNL1       -0.0003
     39 C          61.9931   79.9699   13.5417 C.ar    1  UNL1       -0.0000
     40 C          63.4585   80.1933   13.3128 C.ar    1  UNL1       -0.0003
     41 C          64.0917   81.4914   13.7181 C.ar    1  UNL1       -0.0042
     42 C          61.9988   85.1682   10.8461 C.3     1  UNL1        0.0721
     43 C          62.9689   85.4361    8.9786 C.3     1  UNL1        0.0014
     44 C          63.0631   84.4313   10.0883 C.3     1  UNL1        0.0147
     45 C          63.1574   83.4265   11.1980 C.3     1  UNL1        0.0014
     46 C          64.1274   83.6943    9.3306 C.3     1  UNL1        0.0014
@<TRIPOS>BOND
     1    43    44    1
     2    44    45    1
     3    44    46    1
     4    44    42    1
     5    42     1    1
     6     1    22    1
     7    22    23    1
     8    23    35    1
     9    35    36    1
    10    36    37   ar
    11    37    38   ar
    12    38    39   ar
    13    39    40   ar
    14    40    41   ar
    15    23    24    1
    16    24    25   am
    17    25    26    2
    18    25    28    1
    19    28    29    1
    20    29    30    1
    21    30    31   ar
    22    31    32   ar
    23    32    33   ar
    24    33    34   ar
    25     1     2    1
    26     2     3    1
    27     3    15    1
    28    15    16    1
    29    16    17   ar
    30    17    18   ar
    31    18    19   ar
    32    19    20   ar
    33    20    21   ar
    34     3     4    1
    35     4     5   am
    36     5     6    2
    37     5     8    1
    38     8     9    1
    39     9    10    1
    40    10    11   ar
    41    11    12   ar
    42    12    13   ar
    43    13    14   ar
    44    41    36   ar
    45    34    30   ar
    46    21    16   ar
    47    14    10   ar
    48    24    27    1
    49     4     7    1
@<TRIPOS>MOLECULE
*****
 46 49 0 0 0
SMALL
GASTEIGER

@<TRIPOS>ATOM
      1 N          64.0624   87.1449   15.0632 N.3     1  UNL1       -0.2699
      2 C          64.6319   88.5104   14.8164 C.3     1  UNL1        0.0924
      3 C          64.0952   89.3564   13.7001 C.3     1  UNL1        0.0950
      4 N          64.1274   90.8520   13.8102 N.am    1  UNL1       -0.2706
      5 C          65.4037   91.5498   14.1763 C.2     1  UNL1        0.4020
      6 O          66.6478   90.7520   14.4323 O.2     1  UNL1       -0.2264
      7 H          63.3108   91.3756   13.6422 H       1  UNL1        0.1527
      8 O          65.4358   93.0454   14.2864 O.3     1  UNL1       -0.4274
      9 C          66.5221   93.8243   13.6058 C.3     1  UNL1        0.2621
     10 C          66.7042   93.7170   12.1208 C.ar    1  UNL1        0.1323
     11 N          67.4054   92.6063   11.3965 N.ar    1  UNL1       -0.2374
     12 C          67.3518   92.9043    9.9274 C.ar    1  UNL1        0.1062
     13 C          66.6174   94.1992    9.7437 C.ar    1  UNL1        0.0573
     14 S          66.2171   94.7016   11.0993 S.2     1  UNL1       -0.0666
     15 C          63.5262   88.7068   12.4735 C.3     1  UNL1        0.0474
     16 C          62.3295   89.3044   11.7949 C.ar    1  UNL1       -0.0205
     17 C          61.0375   89.4489   12.5431 C.ar    1  UNL1       -0.0042
     18 C          59.8406   90.0465   11.8645 C.ar    1  UNL1       -0.0003
     19 C          59.9358   90.4996   10.4377 C.ar    1  UNL1       -0.0000
     20 C          61.2279   90.3550    9.6895 C.ar    1  UNL1       -0.0003
     21 C          62.4247   89.7574   10.3681 C.ar    1  UNL1       -0.0042
     22 C          64.7935   85.9284   14.5780 C.3     1  UNL1        0.0924
     23 C          64.0257   84.7512   14.0539 C.3     1  UNL1        0.0950
     24 N          63.0958   84.9207   12.8892 N.am    1  UNL1       -0.2706
     25 C          63.4514   84.3360   11.5543 C.2     1  UNL1        0.4020
     26 O          64.7368   83.5819   11.3842 O.2     1  UNL1       -0.2264
     27 H          62.2521   85.4156   13.0008 H       1  UNL1        0.1527
     28 O          62.5215   84.5055   10.3897 O.3     1  UNL1       -0.4291
     29 C          62.3903   85.8428    9.7230 C.3     1  UNL1        0.2447
     30 C          61.1698   86.1591    8.9102 C.ar    1  UNL1        0.0714
     31 C          60.8863   85.6731    7.5197 C.ar    1  UNL1        0.1053
     32 N          59.5600   86.2306    7.0953 N.ar    1  UNL1       -0.2350
     33 C          59.0239   87.0612    8.2235 C.ar    1  UNL1        0.1343
     34 S          60.0188   87.0170    9.3451 S.2     1  UNL1       -0.0652
     35 C          64.1879   83.4045   14.6944 C.3     1  UNL1        0.0474
     36 C          63.2978   82.2681   14.2868 C.ar    1  UNL1       -0.0205
     37 C          63.8651   81.1070   13.5252 C.ar    1  UNL1       -0.0042
     38 C          62.9751   79.9705   13.1176 C.ar    1  UNL1       -0.0003
     39 C          61.5176   79.9951   13.4716 C.ar    1  UNL1       -0.0000
     40 C          60.9503   81.1561   14.2332 C.ar    1  UNL1       -0.0003
     41 C          61.8404   82.2927   14.6408 C.ar    1  UNL1       -0.0042
     42 C          62.7616   86.9959   15.7952 C.3     1  UNL1        0.0721
     43 C          63.0188   88.4399   17.3279 C.3     1  UNL1        0.0014
     44 C          62.7441   86.9656   17.2948 C.3     1  UNL1        0.0147
     45 C          62.4694   85.4914   17.2618 C.3     1  UNL1        0.0014
     46 C          62.7266   86.9353   18.7944 C.3     1  UNL1        0.0014
@<TRIPOS>BOND
     1    43    44    1
     2    44    45    1
     3    44    46    1
     4    44    42    1
     5    42     1    1
     6     1    22    1
     7    22    23    1
     8    23    35    1
     9    35    36    1
    10    36    37   ar
    11    37    38   ar
    12    38    39   ar
    13    39    40   ar
    14    40    41   ar
    15    23    24    1
    16    24    25   am
    17    25    26    2
    18    25    28    1
    19    28    29    1
    20    29    30    1
    21    30    31   ar
    22    31    32   ar
    23    32    33   ar
    24    33    34   ar
    25     1     2    1
    26     2     3    1
    27     3    15    1
    28    15    16    1
    29    16    17   ar
    30    17    18   ar
    31    18    19   ar
    32    19    20   ar
    33    20    21   ar
    34     3     4    1
    35     4     5   am
    36     5     6    2
    37     5     8    1
    38     8     9    1
    39     9    10    1
    40    10    11   ar
    41    11    12   ar
    42    12    13   ar
    43    13    14   ar
    44    41    36   ar
    45    34    30   ar
    46    21    16   ar
    47    14    10   ar
    48    24    27    1
    49     4     7    1
@<TRIPOS>MOLECULE
*****
 46 49 0 0 0
SMALL
GASTEIGER

@<TRIPOS>ATOM
      1 N          62.3746   86.4575   11.5161 N.3     1  UNL1       -0.2699
      2 C          62.8594   87.7702   10.9758 C.3     1  UNL1        0.0924
      3 C          62.1629   89.0421   11.3588 C.3     1  UNL1        0.0950
      4 N          62.9379   90.1614   11.9886 N.am    1  UNL1       -0.2706
      5 C          63.4662   91.2788   11.1388 C.2     1  UNL1        0.4020
      6 O          63.2195   91.2770    9.6593 O.2     1  UNL1       -0.2264
      7 H          63.0999   90.1626   12.9597 H       1  UNL1        0.1527
      8 O          64.2413   92.3981   11.7686 O.3     1  UNL1       -0.4274
      9 C          65.7072   92.5462   11.4876 C.3     1  UNL1        0.2621
     10 C          66.2028   93.7113   10.6834 C.ar    1  UNL1        0.1323
     11 N          65.7272   95.1291   10.7999 N.ar    1  UNL1       -0.2374
     12 C          66.4914   95.9574    9.8100 C.ar    1  UNL1        0.1062
     13 C          67.4394   95.0514    9.0816 C.ar    1  UNL1        0.0573
     14 S          67.2611   93.6632    9.6213 S.2     1  UNL1       -0.0666
     15 C          60.6911   89.1949   11.1122 C.3     1  UNL1        0.0474
     16 C          60.1061   88.7906    9.7915 C.ar    1  UNL1       -0.0205
     17 C          60.2736   89.6780    8.5939 C.ar    1  UNL1       -0.0042
     18 C          59.6886   89.2737    7.2731 C.ar    1  UNL1       -0.0003
     19 C          58.9360   87.9820    7.1501 C.ar    1  UNL1       -0.0000
     20 C          58.7684   87.0946    8.3478 C.ar    1  UNL1       -0.0003
     21 C          59.3535   87.4990    9.6685 C.ar    1  UNL1       -0.0042
     22 C          62.3448   86.2210   12.9970 C.3     1  UNL1        0.0924
     23 C          63.5907   86.4067   13.8114 C.3     1  UNL1        0.0950
     24 N          64.1445   87.7831   14.0317 N.am    1  UNL1       -0.2706
     25 C          63.8156   88.5315   15.2894 C.2     1  UNL1        0.4020
     26 O          62.9328   87.9033   16.3268 O.2     1  UNL1       -0.2264
     27 H          64.7239   88.1954   13.3509 H       1  UNL1        0.1527
     28 O          64.3694   89.9079   15.5098 O.3     1  UNL1       -0.4291
     29 C          65.3188   90.5029   14.5125 C.3     1  UNL1        0.2447
     30 C          66.3198   91.5306   14.9505 C.ar    1  UNL1        0.0714
     31 C          66.1088   92.5716   16.0097 C.ar    1  UNL1        0.1053
     32 N          67.3660   93.3822   16.1201 N.ar    1  UNL1       -0.2350
     33 C          68.3542   92.8421   15.1291 C.ar    1  UNL1        0.1343
     34 S          67.7075   91.6979   14.4063 S.2     1  UNL1       -0.0652
     35 C          64.2828   85.2158   14.4055 C.3     1  UNL1        0.0474
     36 C          63.7720   83.8338   14.1240 C.ar    1  UNL1       -0.0205
     37 C          64.5380   82.9225   13.2114 C.ar    1  UNL1       -0.0042
     38 C          64.0272   81.5406   12.9299 C.ar    1  UNL1       -0.0003
     39 C          62.7504   81.0699   13.5610 C.ar    1  UNL1       -0.0000
     40 C          61.9844   81.9811   14.4736 C.ar    1  UNL1       -0.0003
     41 C          62.4952   83.3631   14.7551 C.ar    1  UNL1       -0.0042
     42 C          61.9197   85.3813   10.5754 C.3     1  UNL1        0.0721
     43 C          62.0073   85.9995    8.5480 C.3     1  UNL1        0.0014
     44 C          62.7632   85.0152    9.3903 C.3     1  UNL1        0.0147
     45 C          63.5192   84.0308   10.2326 C.3     1  UNL1        0.0014
     46 C          63.6068   84.6489    8.2053 C.3     1  UNL1        0.0014
@<TRIPOS>BOND
     1    43    44    1
     2    44    45    1
     3    44    46    1
     4    44    42    1
     5    42     1    1
     6     1    22    1
     7    22    23    1
     8    23    35    1
     9    35    36    1
    10    36    37   ar
    11    37    38   ar
    12    38    39   ar
    13    39    40   ar
    14    40    41   ar
    15    23    24    1
    16    24    25   am
    17    25    26    2
    18    25    28    1
    19    28    29    1
    20    29    30    1
    21    30    31   ar
    22    31    32   ar
    23    32    33   ar
    24    33    34   ar
    25     1     2    1
    26     2     3    1
    27     3    15    1
    28    15    16    1
    29    16    17   ar
    30    17    18   ar
    31    18    19   ar
    32    19    20   ar
    33    20    21   ar
    34     3     4    1
    35     4     5   am
    36     5     6    2
    37     5     8    1
    38     8     9    1
    39     9    10    1
    40    10    11   ar
    41    11    12   ar
    42    12    13   ar
    43    13    14   ar
    44    41    36   ar
    45    34    30   ar
    46    21    16   ar
    47    14    10   ar
    48    24    27    1
    49     4     7    1
@<TRIPOS>MOLECULE
*****
 46 49 0 0 0
SMALL
GASTEIGER

@<TRIPOS>ATOM
      1 N          63.8241   87.9144   14.0160 N.3     1  UNL1       -0.2699
      2 C          63.8312   86.8129   12.9979 C.3     1  UNL1        0.0924
      3 C          62.6990   85.8303   12.9480 C.3     1  UNL1        0.0950
      4 N          61.5655   86.0403   11.9882 N.am    1  UNL1       -0.2706
      5 C          61.7548   85.7500   10.5288 C.2     1  UNL1        0.4020
      6 O          63.0777   85.2498   10.0292 O.2     1  UNL1       -0.2264
      7 H          60.6972   86.3686   12.3162 H       1  UNL1        0.1527
      8 O          60.6213   85.9600    9.5691 O.3     1  UNL1       -0.4274
      9 C          60.2850   87.3434    9.0968 C.3     1  UNL1        0.2621
     10 C          60.0722   88.4449   10.0925 C.ar    1  UNL1        0.1323
     11 N          59.7431   88.2687   11.5453 N.ar    1  UNL1       -0.2374
     12 C          59.6187   89.6308   12.1609 C.ar    1  UNL1        0.1062
     13 C          59.8708   90.6489   11.0886 C.ar    1  UNL1        0.0573
     14 S          60.1511   89.9160    9.8102 S.2     1  UNL1       -0.0666
     15 C          62.7002   84.6377   13.8578 C.3     1  UNL1        0.0474
     16 C          62.7073   83.2535   13.2800 C.ar    1  UNL1       -0.0205
     17 C          63.4378   82.9794   11.9990 C.ar    1  UNL1       -0.0042
     18 C          63.4450   81.5951   11.4210 C.ar    1  UNL1       -0.0003
     19 C          62.7215   80.4851   12.1242 C.ar    1  UNL1       -0.0000
     20 C          61.9909   80.7594   13.4053 C.ar    1  UNL1       -0.0003
     21 C          61.9838   82.1435   13.9831 C.ar    1  UNL1       -0.0042
     22 C          63.2809   89.2653   13.6555 C.3     1  UNL1        0.0924
     23 C          64.1340   90.4870   13.8278 C.3     1  UNL1        0.0950
     24 N          64.2798   91.4651   12.6999 N.am    1  UNL1       -0.2706
     25 C          63.8467   91.0834   11.3155 C.2     1  UNL1        0.4020
     26 O          63.2677   89.7236   11.0589 O.2     1  UNL1       -0.2264
     27 H          64.6598   92.3575   12.8683 H       1  UNL1        0.1527
     28 O          63.9925   92.0614   10.1876 O.3     1  UNL1       -0.4291
     29 C          64.8058   93.3077   10.3760 C.3     1  UNL1        0.2447
     30 C          66.2763   93.2955   10.0799 C.ar    1  UNL1        0.0714
     31 C          67.2574   92.2533   10.5287 C.ar    1  UNL1        0.1053
     32 N          68.6112   92.6370   10.0093 N.ar    1  UNL1       -0.2350
     33 C          68.4669   93.9164    9.2396 C.ar    1  UNL1        0.1343
     34 S          67.0238   94.3233    9.2833 S.2     1  UNL1       -0.0652
     35 C          64.8414   90.7306   15.1280 C.3     1  UNL1        0.0474
     36 C          66.1210   91.5129   15.1505 C.ar    1  UNL1       -0.0205
     37 C          66.3124   92.6091   16.1564 C.ar    1  UNL1       -0.0042
     38 C          67.5920   93.3914   16.1789 C.ar    1  UNL1       -0.0003
     39 C          68.6804   93.0774   15.1957 C.ar    1  UNL1       -0.0000
     40 C          68.4891   91.9812   14.1898 C.ar    1  UNL1       -0.0003
     41 C          67.2094   91.1989   14.1672 C.ar    1  UNL1       -0.0042
     42 C          64.3600   87.6650   15.3945 C.3     1  UNL1        0.0721
     43 C          63.9875   85.7446   16.2152 C.3     1  UNL1        0.0014
     44 C          63.4571   87.1255   16.4641 C.3     1  UNL1        0.0147
     45 C          62.9268   88.5063   16.7129 C.3     1  UNL1        0.0014
     46 C          62.5543   86.5860   17.5335 C.3     1  UNL1        0.0014
@<TRIPOS>BOND
     1    43    44    1
     2    44    45    1
     3    44    46    1
     4    44    42    1
     5    42     1    1
     6     1    22    1
     7    22    23    1
     8    23    35    1
     9    35    36    1
    10    36    37   ar
    11    37    38   ar
    12    38    39   ar
    13    39    40   ar
    14    40    41   ar
    15    23    24    1
    16    24    25   am
    17    25    26    2
    18    25    28    1
    19    28    29    1
    20    29    30    1
    21    30    31   ar
    22    31    32   ar
    23    32    33   ar
    24    33    34   ar
    25     1     2    1
    26     2     3    1
    27     3    15    1
    28    15    16    1
    29    16    17   ar
    30    17    18   ar
    31    18    19   ar
    32    19    20   ar
    33    20    21   ar
    34     3     4    1
    35     4     5   am
    36     5     6    2
    37     5     8    1
    38     8     9    1
    39     9    10    1
    40    10    11   ar
    41    11    12   ar
    42    12    13   ar
    43    13    14   ar
    44    41    36   ar
    45    34    30   ar
    46    21    16   ar
    47    14    10   ar
    48    24    27    1
    49     4     7    1
@<TRIPOS>MOLECULE
*****
 46 49 0 0 0
SMALL
GASTEIGER

@<TRIPOS>ATOM
      1 N          62.9017   85.7636   12.3031 N.3     1  UNL1       -0.2699
      2 C          62.3948   85.0151   13.5001 C.3     1  UNL1        0.0924
      3 C          63.2392   84.9165   14.7359 C.3     1  UNL1        0.0950
      4 N          63.6455   86.1611   15.4679 N.am    1  UNL1       -0.2706
      5 C          62.8033   86.6755   16.5976 C.2     1  UNL1        0.4020
      6 O          61.5549   85.9452   16.9951 O.2     1  UNL1       -0.2264
      7 H          64.4649   86.6404   15.2070 H       1  UNL1        0.1527
      8 O          63.2096   87.9200   17.3297 O.3     1  UNL1       -0.4274
      9 C          62.7500   89.2616   16.8408 C.3     1  UNL1        0.2621
     10 C          63.6891   90.1406   16.0691 C.ar    1  UNL1        0.1323
     11 N          63.9964   91.5783   16.3671 N.ar    1  UNL1       -0.2374
     12 C          64.9829   92.0626   15.3461 C.ar    1  UNL1        0.1062
     13 C          65.2853   90.9243   14.4173 C.ar    1  UNL1        0.0573
     14 S          64.4857   89.7364   14.8641 S.2     1  UNL1       -0.0666
     15 C          63.6774   83.5732   15.2396 C.3     1  UNL1        0.0474
     16 C          63.0785   82.3244   14.6638 C.ar    1  UNL1       -0.0205
     17 C          61.5881   82.1702   14.5948 C.ar    1  UNL1       -0.0042
     18 C          60.9891   80.9213   14.0190 C.ar    1  UNL1       -0.0003
     19 C          61.8806   79.8266   13.5121 C.ar    1  UNL1       -0.0000
     20 C          63.3711   79.9809   13.5810 C.ar    1  UNL1       -0.0003
     21 C          63.9700   81.2297   14.1568 C.ar    1  UNL1       -0.0042
     22 C          62.7519   87.2543   12.2319 C.3     1  UNL1        0.0924
     23 C          62.3292   87.9052   10.9482 C.3     1  UNL1        0.0950
     24 N          63.1104   89.0632   10.4018 N.am    1  UNL1       -0.2706
     25 C          63.0127   90.4094   11.0562 C.2     1  UNL1        0.4020
     26 O          62.1338   90.5975   12.2571 O.2     1  UNL1       -0.2264
     27 H          63.6872   88.9398    9.6136 H       1  UNL1        0.1527
     28 O          63.7939   91.5675   10.5098 O.3     1  UNL1       -0.4291
     29 C          64.9133   92.1622   11.3117 C.3     1  UNL1        0.2447
     30 C          65.9685   92.9838   10.6322 C.ar    1  UNL1        0.0714
     31 C          67.3296   92.5056   10.2212 C.ar    1  UNL1        0.1053
     32 N          68.0502   93.6540    9.5795 N.ar    1  UNL1       -0.2350
     33 C          67.1344   94.8420    9.5939 C.ar    1  UNL1        0.1343
     34 S          65.8480   94.4278   10.2445 S.2     1  UNL1       -0.0652
     35 C          61.1253   87.3979   10.2110 C.3     1  UNL1        0.0474
     36 C          61.2981   86.5262    9.0027 C.ar    1  UNL1       -0.0205
     37 C          62.6597   86.0157    8.6346 C.ar    1  UNL1       -0.0042
     38 C          62.8324   85.1439    7.4263 C.ar    1  UNL1       -0.0003
     39 C          61.6436   84.7825    6.5860 C.ar    1  UNL1       -0.0000
     40 C          60.2820   85.2930    6.9540 C.ar    1  UNL1       -0.0003
     41 C          60.1092   86.1648    8.1624 C.ar    1  UNL1       -0.0042
     42 C          63.5584   85.0212   11.1772 C.3     1  UNL1        0.0721
     43 C          64.8620   83.3476   11.1716 C.3     1  UNL1        0.0014
     44 C          63.3789   83.5373   11.0517 C.3     1  UNL1        0.0147
     45 C          61.8958   83.7269   10.9318 C.3     1  UNL1        0.0014
     46 C          63.1994   82.0534   10.9262 C.3     1  UNL1        0.0014
@<TRIPOS>BOND
     1    43    44    1
     2    44    45    1
     3    44    46    1
     4    44    42    1
     5    42     1    1
     6     1    22    1
     7    22    23    1
     8    23    35    1
     9    35    36    1
    10    36    37   ar
    11    37    38   ar
    12    38    39   ar
    13    39    40   ar
    14    40    41   ar
    15    23    24    1
    16    24    25   am
    17    25    26    2
    18    25    28    1
    19    28    29    1
    20    29    30    1
    21    30    31   ar
    22    31    32   ar
    23    32    33   ar
    24    33    34   ar
    25     1     2    1
    26     2     3    1
    27     3    15    1
    28    15    16    1
    29    16    17   ar
    30    17    18   ar
    31    18    19   ar
    32    19    20   ar
    33    20    21   ar
    34     3     4    1
    35     4     5   am
    36     5     6    2
    37     5     8    1
    38     8     9    1
    39     9    10    1
    40    10    11   ar
    41    11    12   ar
    42    12    13   ar
    43    13    14   ar
    44    41    36   ar
    45    34    30   ar
    46    21    16   ar
    47    14    10   ar
    48    24    27    1
    49     4     7    1
@<TRIPOS>MOLECULE
*****
 46 49 0 0 0
SMALL
GASTEIGER

@<TRIPOS>ATOM
      1 N          60.9128   86.4943    9.5237 N.3     1  UNL1       -0.2699
      2 C          61.0428   85.5936   10.7161 C.3     1  UNL1        0.0924
      3 C          62.3525   85.4922   11.4402 C.3     1  UNL1        0.0950
      4 N          62.7040   86.4955   12.4984 N.am    1  UNL1       -0.2706
      5 C          63.0286   87.9086   12.1141 C.2     1  UNL1        0.4020
      6 O          63.0016   88.3184   10.6714 O.2     1  UNL1       -0.2264
      7 H          62.7217   86.2265   13.4453 H       1  UNL1        0.1527
      8 O          63.3801   88.9118   13.1723 O.3     1  UNL1       -0.4274
      9 C          64.2794   88.5208   14.3073 C.3     1  UNL1        0.2621
     10 C          63.7227   87.7717   15.4816 C.ar    1  UNL1        0.1323
     11 N          63.6062   86.2811   15.6017 N.ar    1  UNL1       -0.2374
     12 C          62.9962   85.9698   16.9363 C.ar    1  UNL1        0.1062
     13 C          62.7358   87.2681   17.6410 C.ar    1  UNL1        0.0573
     14 S          63.1848   88.3818   16.7420 S.2     1  UNL1       -0.0666
     15 C          63.3107   84.3876   11.1060 C.3     1  UNL1        0.0474
     16 C          63.0715   83.0029   11.6308 C.ar    1  UNL1       -0.0205
     17 C          62.6522   82.8035   13.0571 C.ar    1  UNL1       -0.0042
     18 C          62.4130   81.4188   13.5820 C.ar    1  UNL1       -0.0003
     19 C          62.5931   80.2335   12.6804 C.ar    1  UNL1       -0.0000
     20 C          63.0124   80.4330   11.2541 C.ar    1  UNL1       -0.0003
     21 C          63.2516   81.8177   10.7293 C.ar    1  UNL1       -0.0042
     22 C          59.7844   87.4796    9.4475 C.3     1  UNL1        0.0924
     23 C          59.8728   88.6506    8.5143 C.3     1  UNL1        0.0950
     24 N          60.7806   89.8002    8.8373 N.am    1  UNL1       -0.2706
     25 C          60.8898   90.2960   10.2488 C.2     1  UNL1        0.4020
     26 O          60.0913   89.6421   11.3372 O.2     1  UNL1       -0.2264
     27 H          61.3047   90.2294    8.1229 H       1  UNL1        0.1527
     28 O          61.7975   91.4456   10.5718 O.3     1  UNL1       -0.4291
     29 C          63.2534   91.3741   10.2178 C.3     1  UNL1        0.2447
     30 C          64.2788   91.9698   11.1365 C.ar    1  UNL1        0.0714
     31 C          64.3277   91.8073   12.6269 C.ar    1  UNL1        0.1053
     32 N          65.5143   92.5696   13.1376 N.ar    1  UNL1       -0.2350
     33 C          66.1987   93.2032   11.9628 C.ar    1  UNL1        0.1343
     34 S          65.4351   92.8325   10.7261 S.2     1  UNL1       -0.0652
     35 C          59.0535   88.6719    7.2579 C.3     1  UNL1        0.0474
     36 C          59.1749   89.8221    6.3028 C.ar    1  UNL1       -0.0205
     37 C          57.9537   90.5944    5.8996 C.ar    1  UNL1       -0.0042
     38 C          58.0751   91.7445    4.9445 C.ar    1  UNL1       -0.0003
     39 C          59.4176   92.1225    4.3925 C.ar    1  UNL1       -0.0000
     40 C          60.6388   91.3504    4.7956 C.ar    1  UNL1       -0.0003
     41 C          60.5174   90.2001    5.7508 C.ar    1  UNL1       -0.0042
     42 C          61.9112   86.4098    8.4074 C.3     1  UNL1        0.0721
     43 C          63.2567   84.9164    7.7296 C.3     1  UNL1        0.0014
     44 C          61.8365   85.2848    7.4180 C.3     1  UNL1        0.0147
     45 C          60.4163   85.6532    7.1064 C.3     1  UNL1        0.0014
     46 C          61.7618   84.1599    6.4286 C.3     1  UNL1        0.0014
@<TRIPOS>BOND
     1    43    44    1
     2    44    45    1
     3    44    46    1
     4    44    42    1
     5    42     1    1
     6     1    22    1
     7    22    23    1
     8    23    35    1
     9    35    36    1
    10    36    37   ar
    11    37    38   ar
    12    38    39   ar
    13    39    40   ar
    14    40    41   ar
    15    23    24    1
    16    24    25   am
    17    25    26    2
    18    25    28    1
    19    28    29    1
    20    29    30    1
    21    30    31   ar
    22    31    32   ar
    23    32    33   ar
    24    33    34   ar
    25     1     2    1
    26     2     3    1
    27     3    15    1
    28    15    16    1
    29    16    17   ar
    30    17    18   ar
    31    18    19   ar
    32    19    20   ar
    33    20    21   ar
    34     3     4    1
    35     4     5   am
    36     5     6    2
    37     5     8    1
    38     8     9    1
    39     9    10    1
    40    10    11   ar
    41    11    12   ar
    42    12    13   ar
    43    13    14   ar
    44    41    36   ar
    45    34    30   ar
    46    21    16   ar
    47    14    10   ar
    48    24    27    1
    49     4     7    1
@<TRIPOS>MOLECULE
*****
 46 49 0 0 0
SMALL
GASTEIGER

@<TRIPOS>ATOM
      1 N          62.1963   86.1403   11.5787 N.3     1  UNL1       -0.2699
      2 C          62.2224   85.5747   12.9678 C.3     1  UNL1        0.0924
      3 C          63.4833   84.9665   13.5063 C.3     1  UNL1        0.0950
      4 N          63.7428   83.4996   13.3311 N.am    1  UNL1       -0.2706
      5 C          63.4034   82.5410   14.4337 C.2     1  UNL1        0.4020
      6 O          62.8045   83.0493   15.7115 O.2     1  UNL1       -0.2264
      7 H          64.1359   83.1660   12.4924 H       1  UNL1        0.1527
      8 O          63.6629   81.0740   14.2585 O.3     1  UNL1       -0.4274
      9 C          62.6508   80.2109   13.5651 C.3     1  UNL1        0.2621
     10 C          62.7585   79.9672   12.0889 C.ar    1  UNL1        0.1323
     11 N          62.5701   78.6499   11.3967 N.ar    1  UNL1       -0.2374
     12 C          62.7686   78.8666    9.9258 C.ar    1  UNL1        0.1062
     13 C          63.0796   80.3178    9.7089 C.ar    1  UNL1        0.0573
     14 S          63.0734   80.9982   11.0458 S.2     1  UNL1       -0.0666
     15 C          64.4848   85.8253   14.2202 C.3     1  UNL1        0.0474
     16 C          64.0196   86.8803   15.1796 C.ar    1  UNL1       -0.0205
     17 C          63.3803   86.4844   16.4774 C.ar    1  UNL1       -0.0042
     18 C          62.9151   87.5395   17.4369 C.ar    1  UNL1       -0.0003
     19 C          63.0893   88.9904   17.0985 C.ar    1  UNL1       -0.0000
     20 C          63.7287   89.3863   15.8006 C.ar    1  UNL1       -0.0003
     21 C          64.1939   88.3312   14.8412 C.ar    1  UNL1       -0.0042
     22 C          62.6871   87.5353   11.3276 C.3     1  UNL1        0.0924
     23 C          61.7267   88.6868   11.3675 C.3     1  UNL1        0.0950
     24 N          60.4981   88.6689   10.5072 N.am    1  UNL1       -0.2706
     25 C          60.5086   89.3491    9.1703 C.2     1  UNL1        0.4020
     26 O          61.7478   90.0472    8.6937 O.2     1  UNL1       -0.2264
     27 H          59.6848   88.2108   10.8199 H       1  UNL1        0.1527
     28 O          59.2800   89.3312    8.3100 O.3     1  UNL1       -0.4291
     29 C          59.4052   89.1398    6.8275 C.3     1  UNL1        0.2447
     30 C          59.1498   90.2897    5.8987 C.ar    1  UNL1        0.0714
     31 C          57.8055   90.8458    5.5330 C.ar    1  UNL1        0.1053
     32 N          58.0185   91.9851    4.5808 N.ar    1  UNL1       -0.2350
     33 C          59.4946   92.1330    4.3580 C.ar    1  UNL1        0.1343
     34 S          60.1936   91.0853    5.1725 S.2     1  UNL1       -0.0652
     35 C          61.9950   89.8563   12.2677 C.3     1  UNL1        0.0474
     36 C          63.1555   90.7654   11.9907 C.ar    1  UNL1       -0.0205
     37 C          64.0529   91.1990   13.1117 C.ar    1  UNL1       -0.0042
     38 C          65.2134   92.1081   12.8347 C.ar    1  UNL1       -0.0003
     39 C          65.4766   92.5835   11.4366 C.ar    1  UNL1       -0.0000
     40 C          64.5793   92.1499   10.3155 C.ar    1  UNL1       -0.0003
     41 C          63.4187   91.2408   10.5926 C.ar    1  UNL1       -0.0042
     42 C          61.6794   85.3109   10.4408 C.3     1  UNL1        0.0721
     43 C          63.5058   84.4326    9.8140 C.3     1  UNL1        0.0014
     44 C          62.4400   85.2524    9.1493 C.3     1  UNL1        0.0147
     45 C          61.3743   86.0722    8.4845 C.3     1  UNL1        0.0014
     46 C          63.2006   85.1939    7.8577 C.3     1  UNL1        0.0014
@<TRIPOS>BOND
     1    43    44    1
     2    44    45    1
     3    44    46    1
     4    44    42    1
     5    42     1    1
     6     1    22    1
     7    22    23    1
     8    23    35    1
     9    35    36    1
    10    36    37   ar
    11    37    38   ar
    12    38    39   ar
    13    39    40   ar
    14    40    41   ar
    15    23    24    1
    16    24    25   am
    17    25    26    2
    18    25    28    1
    19    28    29    1
    20    29    30    1
    21    30    31   ar
    22    31    32   ar
    23    32    33   ar
    24    33    34   ar
    25     1     2    1
    26     2     3    1
    27     3    15    1
    28    15    16    1
    29    16    17   ar
    30    17    18   ar
    31    18    19   ar
    32    19    20   ar
    33    20    21   ar
    34     3     4    1
    35     4     5   am
    36     5     6    2
    37     5     8    1
    38     8     9    1
    39     9    10    1
    40    10    11   ar
    41    11    12   ar
    42    12    13   ar
    43    13    14   ar
    44    41    36   ar
    45    34    30   ar
    46    21    16   ar
    47    14    10   ar
    48    24    27    1
    49     4     7    1
