@<TRIPOS>MOLECULE
*****
 36 39 0 0 0
SMALL
GASTEIGER

@<TRIPOS>ATOM
      1 N          63.4540   85.1761   13.6506 N.ar    1  UNL1       -0.2340
      2 C          64.2720   86.3936   13.9646 C.ar    1  UNL1        0.3338
      3 O          65.3353   86.3308   15.0207 O.2     1  UNL1       -0.2463
      4 N          64.0266   87.6739   13.2225 N.ar    1  UNL1       -0.2776
      5 C          62.9634   87.7367   12.1663 C.ar    1  UNL1        0.2175
      6 N          62.7181   89.0170   11.4242 N.2     1  UNL1       -0.2128
      7 N          62.1454   86.5192   11.8523 N.ar    1  UNL1       -0.2479
      8 C          62.3907   85.2389   12.5944 C.ar    1  UNL1        0.3373
      9 O          61.5727   84.0214   12.2804 O.2     1  UNL1       -0.2461
     10 H          64.5635   88.4729   13.4286 H       1  UNL1        0.1733
     11 C          63.5360   90.2344   11.7383 C.ar    1  UNL1        0.0846
     12 C          63.8348   91.2354   10.6618 C.ar    1  UNL1        0.0223
     13 C          64.6528   92.4529   10.9759 C.ar    1  UNL1        0.0391
     14 C          65.1720   92.6694   12.3664 C.ar    1  UNL1        0.1473
     15 C          64.8732   91.6684   13.4428 C.ar    1  UNL1        0.0391
     16 C          64.0553   90.4510   13.1288 C.ar    1  UNL1        0.0223
     17 O          65.9900   93.8869   12.6805 O.3     1  UNL1       -0.4356
     18 C          66.4023   94.8180   11.5791 C.ar    1  UNL1        0.2366
     19 C          66.0810   96.2808   11.4945 C.ar    1  UNL1        0.0671
     20 C          66.6884   96.8167   10.2321 C.ar    1  UNL1        0.0597
     21 S          67.3852   95.6851    9.5363 S.2     1  UNL1        0.0169
     22 N          67.2084   94.4498   10.3688 N.ar    1  UNL1       -0.1735
     23 C          63.6993   83.8959   14.3927 C.3     1  UNL1        0.1205
     24 C          64.6408   82.4504   12.4499 C.3     1  UNL1        0.0079
     25 C          63.7494   82.5949   13.6477 C.3     1  UNL1        0.0594
     26 C          62.9083   81.4385   14.1005 C.2     1  UNL1        0.0519
     27 O          61.4706   81.6557   14.4692 O.co2   1  UNL1       -0.5491
     28 O          63.5048   80.0648   14.1846 O.co2   1  UNL1       -0.5491
     29 C          61.0821   86.5820   10.7961 C.3     1  UNL1        0.1401
     30 C          61.3481   86.0231    9.4299 C.ar    1  UNL1        0.0007
     31 C          62.6941   85.4466    9.1044 C.ar    1  UNL1       -0.0015
     32 C          62.9602   84.8877    7.7380 C.ar    1  UNL1        0.0111
     33 C          61.8802   84.9052    6.6972 C.ar    1  UNL1        0.0577
     34 CL         62.1463   84.3463    5.3309 Cl      1  UNL1       -0.0822
     35 C          60.5342   85.4817    7.0227 C.ar    1  UNL1        0.0111
     36 C          60.2682   86.0406    8.3889 C.ar    1  UNL1       -0.0015
@<TRIPOS>UNITY_ATOM_ATTR
27 1
charge -1
@<TRIPOS>BOND
     1    25    24    1
     2    25    23    1
     3    23     1    1
     4     1     2   ar
     5     2     3    2
     6     2     4   ar
     7     4     5   ar
     8     5     6    2
     9     6    11    1
    10    11    12   ar
    11    12    13   ar
    12    13    14   ar
    13    14    17    1
    14    17    18    1
    15    18    19   ar
    16    19    20   ar
    17    20    21   ar
    18    21    22   ar
    19    14    15   ar
    20    15    16   ar
    21     5     7   ar
    22     7    29    1
    23    29    30    1
    24    30    31   ar
    25    31    32   ar
    26    32    33   ar
    27    33    34    1
    28    33    35   ar
    29    35    36   ar
    30     7     8   ar
    31     8     9    2
    32    25    26    1
    33    26    27   ar
    34    26    28   ar
    35     8     1   ar
    36    16    11   ar
    37    36    30   ar
    38    22    18   ar
    39     4    10    1
@<TRIPOS>MOLECULE
*****
 36 39 0 0 0
SMALL
GASTEIGER

@<TRIPOS>ATOM
      1 N          65.4749   92.2649   13.2120 N.ar    1  UNL1       -0.2340
      2 C          64.8825   92.0488   11.8510 C.ar    1  UNL1        0.3338
      3 O          65.4458   92.7729   10.6642 O.2     1  UNL1       -0.2463
      4 N          63.7267   91.1086   11.6768 N.ar    1  UNL1       -0.2776
      5 C          63.1634   90.3846   12.8635 C.ar    1  UNL1        0.2175
      6 N          62.0077   89.4444   12.6893 N.2     1  UNL1       -0.2128
      7 N          63.7559   90.6006   14.2245 N.ar    1  UNL1       -0.2479
      8 C          64.9116   91.5408   14.3987 C.ar    1  UNL1        0.3373
      9 O          65.5041   91.7569   15.7598 O.2     1  UNL1       -0.2461
     10 H          63.3379   90.9668   10.7835 H       1  UNL1        0.1733
     11 C          61.4152   89.2283   11.3283 C.ar    1  UNL1        0.0846
     12 C          61.8226   88.0366   10.5136 C.ar    1  UNL1        0.0223
     13 C          61.2301   87.8205    9.1526 C.ar    1  UNL1        0.0391
     14 C          60.2303   88.7962    8.6064 C.ar    1  UNL1        0.1473
     15 C          59.8229   89.9879    9.4211 C.ar    1  UNL1        0.0391
     16 C          60.4153   90.2040   10.7821 C.ar    1  UNL1        0.0223
     17 O          59.6377   88.5801    7.2453 O.3     1  UNL1       -0.4356
     18 C          59.3477   89.7547    6.3586 C.ar    1  UNL1        0.2366
     19 C          60.3628   90.5648    5.6081 C.ar    1  UNL1        0.0671
     20 C          59.6340   91.6361    4.8523 C.ar    1  UNL1        0.0597
     21 S          58.1685   91.4881    5.1357 S.2     1  UNL1        0.0169
     22 N          57.9914   90.3253    6.0666 N.ar    1  UNL1       -0.1735
     23 C          66.6307   93.2050   13.3862 C.3     1  UNL1        0.1205
     24 C          68.8002   91.8164   13.0465 C.3     1  UNL1        0.0079
     25 C          67.9410   92.6942   13.9077 C.3     1  UNL1        0.0594
     26 C          68.3923   93.0610   15.2904 C.2     1  UNL1        0.0519
     27 O          68.8887   91.9972   16.2243 O.co2   1  UNL1       -0.5491
     28 O          68.3473   94.4915   15.7392 O.co2   1  UNL1       -0.5491
     29 C          63.1926   89.8765   15.4113 C.3     1  UNL1        0.1401
     30 C          63.4453   88.4080   15.5832 C.ar    1  UNL1        0.0007
     31 C          64.2526   87.6614   14.5630 C.ar    1  UNL1       -0.0015
     32 C          64.5052   86.1928   14.7350 C.ar    1  UNL1        0.0111
     33 C          63.9506   85.4709   15.9271 C.ar    1  UNL1        0.0577
     34 CL         64.2032   84.0024   16.0990 Cl      1  UNL1       -0.0822
     35 C          63.1433   86.2176   16.9473 C.ar    1  UNL1        0.0111
     36 C          62.8906   87.6861   16.7754 C.ar    1  UNL1       -0.0015
@<TRIPOS>UNITY_ATOM_ATTR
27 1
charge -1
@<TRIPOS>BOND
     1    25    24    1
     2    25    23    1
     3    23     1    1
     4     1     2   ar
     5     2     3    2
     6     2     4   ar
     7     4     5   ar
     8     5     6    2
     9     6    11    1
    10    11    12   ar
    11    12    13   ar
    12    13    14   ar
    13    14    17    1
    14    17    18    1
    15    18    19   ar
    16    19    20   ar
    17    20    21   ar
    18    21    22   ar
    19    14    15   ar
    20    15    16   ar
    21     5     7   ar
    22     7    29    1
    23    29    30    1
    24    30    31   ar
    25    31    32   ar
    26    32    33   ar
    27    33    34    1
    28    33    35   ar
    29    35    36   ar
    30     7     8   ar
    31     8     9    2
    32    25    26    1
    33    26    27   ar
    34    26    28   ar
    35     8     1   ar
    36    16    11   ar
    37    36    30   ar
    38    22    18   ar
    39     4    10    1
@<TRIPOS>MOLECULE
*****
 36 39 0 0 0
SMALL
GASTEIGER

@<TRIPOS>ATOM
      1 N          63.7482   84.2629   13.0132 N.ar    1  UNL1       -0.2340
      2 C          64.4225   85.2854   13.8790 C.ar    1  UNL1        0.3338
      3 O          65.4034   84.8510   14.9275 O.2     1  UNL1       -0.2463
      4 N          64.1161   86.7424   13.6964 N.ar    1  UNL1       -0.2776
      5 C          63.1352   87.1768   12.6480 C.ar    1  UNL1        0.2175
      6 N          62.8288   88.6338   12.4653 N.2     1  UNL1       -0.2128
      7 N          62.4609   86.1543   11.7822 N.ar    1  UNL1       -0.2479
      8 C          62.7674   84.6973   11.9648 C.ar    1  UNL1        0.3373
      9 O          62.0929   83.6748   11.0989 O.2     1  UNL1       -0.2461
     10 H          64.5587   87.4135   14.2646 H       1  UNL1        0.1733
     11 C          63.5031   89.6563   13.3311 C.ar    1  UNL1        0.0846
     12 C          64.3891   90.6964   12.7120 C.ar    1  UNL1        0.0223
     13 C          65.0635   91.7189   13.5779 C.ar    1  UNL1        0.0391
     14 C          64.8518   91.7014   15.0628 C.ar    1  UNL1        0.1473
     15 C          63.9658   90.6613   15.6818 C.ar    1  UNL1        0.0391
     16 C          63.2915   89.6388   14.8161 C.ar    1  UNL1        0.0223
     17 O          65.5262   92.7240   15.9286 O.3     1  UNL1       -0.4356
     18 C          67.0149   92.8961   15.8652 C.ar    1  UNL1        0.2366
     19 C          68.0204   91.8039   15.6500 C.ar    1  UNL1        0.0671
     20 C          69.3865   92.4234   15.6576 C.ar    1  UNL1        0.0597
     21 S          69.2254   93.8984   15.8776 S.2     1  UNL1        0.0169
     22 N          67.7597   94.1906   16.0059 N.ar    1  UNL1       -0.1735
     23 C          64.0547   82.8059   13.1958 C.3     1  UNL1        0.1205
     24 C          62.8714   80.6312   12.4083 C.3     1  UNL1        0.0079
     25 C          62.9363   81.8150   13.3272 C.3     1  UNL1        0.0594
     26 C          61.8829   82.0079   14.3775 C.2     1  UNL1        0.0519
     27 O          60.7220   81.0612   14.4581 O.co2   1  UNL1       -0.5491
     28 O          61.9902   83.1473   15.3471 O.co2   1  UNL1       -0.5491
     29 C          61.4800   86.5887   10.7337 C.3     1  UNL1        0.1401
     30 C          61.5652   86.0236    9.3469 C.ar    1  UNL1        0.0007
     31 C          62.8710   85.4958    8.8309 C.ar    1  UNL1       -0.0015
     32 C          62.9562   84.9307    7.4440 C.ar    1  UNL1        0.0111
     33 C          61.7355   84.8933    6.5731 C.ar    1  UNL1        0.0577
     34 CL         61.8207   84.3282    5.1863 Cl      1  UNL1       -0.0822
     35 C          60.4296   85.4211    7.0891 C.ar    1  UNL1        0.0111
     36 C          60.3445   85.9862    8.4759 C.ar    1  UNL1       -0.0015
@<TRIPOS>UNITY_ATOM_ATTR
27 1
charge -1
@<TRIPOS>BOND
     1    25    24    1
     2    25    23    1
     3    23     1    1
     4     1     2   ar
     5     2     3    2
     6     2     4   ar
     7     4     5   ar
     8     5     6    2
     9     6    11    1
    10    11    12   ar
    11    12    13   ar
    12    13    14   ar
    13    14    17    1
    14    17    18    1
    15    18    19   ar
    16    19    20   ar
    17    20    21   ar
    18    21    22   ar
    19    14    15   ar
    20    15    16   ar
    21     5     7   ar
    22     7    29    1
    23    29    30    1
    24    30    31   ar
    25    31    32   ar
    26    32    33   ar
    27    33    34    1
    28    33    35   ar
    29    35    36   ar
    30     7     8   ar
    31     8     9    2
    32    25    26    1
    33    26    27   ar
    34    26    28   ar
    35     8     1   ar
    36    16    11   ar
    37    36    30   ar
    38    22    18   ar
    39     4    10    1
@<TRIPOS>MOLECULE
*****
 36 39 0 0 0
SMALL
GASTEIGER

@<TRIPOS>ATOM
      1 N          63.3471   84.8839   13.3152 N.ar    1  UNL1       -0.2340
      2 C          64.1153   85.9957   13.9662 C.ar    1  UNL1        0.3338
      3 O          65.0591   85.6957   15.0929 O.2     1  UNL1       -0.2463
      4 N          63.9399   87.4074   13.4904 N.ar    1  UNL1       -0.2776
      5 C          62.9962   87.7073   12.3638 C.ar    1  UNL1        0.2175
      6 N          62.8207   89.1190   11.8881 N.2     1  UNL1       -0.2128
      7 N          62.2279   86.5956   11.7128 N.ar    1  UNL1       -0.2479
      8 C          62.4034   85.1839   12.1885 C.ar    1  UNL1        0.3373
      9 O          61.6351   84.0721   11.5375 O.2     1  UNL1       -0.2461
     10 H          64.4441   88.1370   13.9177 H       1  UNL1        0.1733
     11 C          63.5889   90.2308   12.5390 C.ar    1  UNL1        0.0846
     12 C          63.6972   90.2926   14.0338 C.ar    1  UNL1        0.0223
     13 C          64.4655   91.4044   14.6848 C.ar    1  UNL1        0.0391
     14 C          65.1254   92.4544   13.8409 C.ar    1  UNL1        0.1473
     15 C          65.0171   92.3925   12.3461 C.ar    1  UNL1        0.0391
     16 C          64.2489   91.2808   11.6952 C.ar    1  UNL1        0.0223
     17 O          65.8937   93.5662   14.4919 O.3     1  UNL1       -0.4356
     18 C          67.3171   93.3485   14.9121 C.ar    1  UNL1        0.2366
     19 C          68.2202   92.2514   14.4318 C.ar    1  UNL1        0.0671
     20 C          69.5485   92.4145   15.1092 C.ar    1  UNL1        0.0597
     21 S          69.4664   93.6124   16.0082 S.2     1  UNL1        0.0169
     22 N          68.0873   94.1897   15.8864 N.ar    1  UNL1       -0.1735
     23 C          63.5226   83.4722   13.7909 C.3     1  UNL1        0.1205
     24 C          64.6814   82.6648   11.6102 C.3     1  UNL1        0.0079
     25 C          63.8221   82.3808   12.8065 C.3     1  UNL1        0.0594
     26 C          63.2623   81.0054   13.0183 C.2     1  UNL1        0.0519
     27 O          63.1433   80.4497   14.4066 O.co2   1  UNL1       -0.5491
     28 O          62.8217   80.1856   11.8420 O.co2   1  UNL1       -0.5491
     29 C          61.2842   86.8955   10.5861 C.3     1  UNL1        0.1401
     30 C          61.4527   86.2082    9.2635 C.ar    1  UNL1        0.0007
     31 C          60.2837   86.0754    8.3330 C.ar    1  UNL1       -0.0015
     32 C          60.4522   85.3881    7.0104 C.ar    1  UNL1        0.0111
     33 C          61.7896   84.8335    6.6184 C.ar    1  UNL1        0.0577
     34 CL         61.9581   84.1462    5.2958 Cl      1  UNL1       -0.0822
     35 C          62.9586   84.9662    7.5489 C.ar    1  UNL1        0.0111
     36 C          62.7901   85.6535    8.8715 C.ar    1  UNL1       -0.0015
@<TRIPOS>UNITY_ATOM_ATTR
27 1
charge -1
@<TRIPOS>BOND
     1    25    24    1
     2    25    23    1
     3    23     1    1
     4     1     2   ar
     5     2     3    2
     6     2     4   ar
     7     4     5   ar
     8     5     6    2
     9     6    11    1
    10    11    12   ar
    11    12    13   ar
    12    13    14   ar
    13    14    17    1
    14    17    18    1
    15    18    19   ar
    16    19    20   ar
    17    20    21   ar
    18    21    22   ar
    19    14    15   ar
    20    15    16   ar
    21     5     7   ar
    22     7    29    1
    23    29    30    1
    24    30    31   ar
    25    31    32   ar
    26    32    33   ar
    27    33    34    1
    28    33    35   ar
    29    35    36   ar
    30     7     8   ar
    31     8     9    2
    32    25    26    1
    33    26    27   ar
    34    26    28   ar
    35     8     1   ar
    36    16    11   ar
    37    36    30   ar
    38    22    18   ar
    39     4    10    1
@<TRIPOS>MOLECULE
*****
 36 39 0 0 0
SMALL
GASTEIGER

@<TRIPOS>ATOM
      1 N          63.7147   87.3414   13.8323 N.ar    1  UNL1       -0.2340
      2 C          62.8212   88.2248   13.0130 C.ar    1  UNL1        0.3338
      3 O          62.5193   89.6201   13.4736 O.2     1  UNL1       -0.2463
      4 N          62.2295   87.7130   11.7332 N.ar    1  UNL1       -0.2776
      5 C          62.5314   86.3178   11.2726 C.ar    1  UNL1        0.2175
      6 N          61.9398   85.8060    9.9928 N.2     1  UNL1       -0.2128
      7 N          63.4249   85.4344   12.0918 N.ar    1  UNL1       -0.2479
      8 C          64.0166   85.9462   13.3717 C.ar    1  UNL1        0.3373
      9 O          64.9102   85.0628   14.1909 O.2     1  UNL1       -0.2461
     10 H          61.6431   88.2928   11.1955 H       1  UNL1        0.1733
     11 C          61.0462   86.6894    9.1735 C.ar    1  UNL1        0.0846
     12 C          61.0365   88.1708    9.4084 C.ar    1  UNL1        0.0223
     13 C          60.1429   89.0542    8.5891 C.ar    1  UNL1        0.0391
     14 C          59.2591   88.4561    7.5350 C.ar    1  UNL1        0.1473
     15 C          59.2688   86.9747    7.3001 C.ar    1  UNL1        0.0391
     16 C          60.1624   86.0913    8.1194 C.ar    1  UNL1        0.0223
     17 O          58.3655   89.3395    6.7157 O.3     1  UNL1       -0.4356
     18 C          58.9621   90.3562    5.7881 C.ar    1  UNL1        0.2366
     19 C          58.2265   91.4809    5.1219 C.ar    1  UNL1        0.0671
     20 C          59.2088   92.2465    4.2859 C.ar    1  UNL1        0.0597
     21 S          60.5515   91.5948    4.4352 S.2     1  UNL1        0.0169
     22 N          60.3991   90.4265    5.3637 N.ar    1  UNL1       -0.1735
     23 C          64.3064   87.8533   15.1121 C.3     1  UNL1        0.1205
     24 C          63.0779   89.4211   16.7803 C.3     1  UNL1        0.0079
     25 C          63.4357   88.0392   16.3193 C.3     1  UNL1        0.0594
     26 C          62.9228   86.8434   17.0655 C.2     1  UNL1        0.0519
     27 O          62.8504   86.8685   18.5636 O.co2   1  UNL1       -0.5491
     28 O          62.4823   85.6224   16.3137 O.co2   1  UNL1       -0.5491
     29 C          63.7269   84.0391   11.6312 C.3     1  UNL1        0.1401
     30 C          63.0533   82.8705   12.2873 C.ar    1  UNL1        0.0007
     31 C          62.3031   83.0615   13.5721 C.ar    1  UNL1       -0.0015
     32 C          61.6295   81.8928   14.2282 C.ar    1  UNL1        0.0111
     33 C          61.7061   80.5331   13.5996 C.ar    1  UNL1        0.0577
     34 CL         61.0325   79.3645   14.2557 Cl      1  UNL1       -0.0822
     35 C          62.4563   80.3420   12.3148 C.ar    1  UNL1        0.0111
     36 C          63.1299   81.5107   11.6587 C.ar    1  UNL1       -0.0015
@<TRIPOS>UNITY_ATOM_ATTR
27 1
charge -1
@<TRIPOS>BOND
     1    25    24    1
     2    25    23    1
     3    23     1    1
     4     1     2   ar
     5     2     3    2
     6     2     4   ar
     7     4     5   ar
     8     5     6    2
     9     6    11    1
    10    11    12   ar
    11    12    13   ar
    12    13    14   ar
    13    14    17    1
    14    17    18    1
    15    18    19   ar
    16    19    20   ar
    17    20    21   ar
    18    21    22   ar
    19    14    15   ar
    20    15    16   ar
    21     5     7   ar
    22     7    29    1
    23    29    30    1
    24    30    31   ar
    25    31    32   ar
    26    32    33   ar
    27    33    34    1
    28    33    35   ar
    29    35    36   ar
    30     7     8   ar
    31     8     9    2
    32    25    26    1
    33    26    27   ar
    34    26    28   ar
    35     8     1   ar
    36    16    11   ar
    37    36    30   ar
    38    22    18   ar
    39     4    10    1
@<TRIPOS>MOLECULE
*****
 36 39 0 0 0
SMALL
GASTEIGER

@<TRIPOS>ATOM
      1 N          65.0963   91.5013   12.7015 N.ar    1  UNL1       -0.2340
      2 C          64.3071   91.5676   11.4276 C.ar    1  UNL1        0.3338
      3 O          64.5625   92.6707   10.4437 O.2     1  UNL1       -0.2463
      4 N          63.2626   90.5309   11.1376 N.ar    1  UNL1       -0.2776
      5 C          63.0072   89.4278   12.1214 C.ar    1  UNL1        0.2175
      6 N          61.9626   88.3911   11.8314 N.2     1  UNL1       -0.2128
      7 N          63.7964   89.3615   13.3953 N.ar    1  UNL1       -0.2479
      8 C          64.8409   90.3982   13.6853 C.ar    1  UNL1        0.3373
      9 O          65.6301   90.3318   14.9593 O.2     1  UNL1       -0.2461
     10 H          62.7446   90.5744   10.3015 H       1  UNL1        0.1733
     11 C          61.1735   88.4574   10.5575 C.ar    1  UNL1        0.0846
     12 C          61.0417   87.2390    9.6926 C.ar    1  UNL1        0.0223
     13 C          60.2525   87.3054    8.4186 C.ar    1  UNL1        0.0391
     14 C          59.5951   88.5901    8.0097 C.ar    1  UNL1        0.1473
     15 C          59.7269   89.8085    8.8747 C.ar    1  UNL1        0.0391
     16 C          60.5160   89.7422   10.1486 C.ar    1  UNL1        0.0223
     17 O          58.8059   88.6565    6.7358 O.3     1  UNL1       -0.4356
     18 C          58.7794   89.9247    5.9352 C.ar    1  UNL1        0.2366
     19 C          59.9691   90.6135    5.3350 C.ar    1  UNL1        0.0671
     20 C          59.4835   91.8413    4.6231 C.ar    1  UNL1        0.0597
     21 S          57.9937   91.9113    4.7833 S.2     1  UNL1        0.0169
     22 N          57.5585   90.7268    5.5942 N.ar    1  UNL1       -0.1735
     23 C          66.1409   92.5380   12.9915 C.3     1  UNL1        0.1205
     24 C          68.6373   91.8638   13.2426 C.3     1  UNL1        0.0079
     25 C          67.5150   92.4024   12.4057 C.3     1  UNL1        0.0594
     26 C          67.7670   92.8055   10.9830 C.2     1  UNL1        0.0519
     27 O          68.2111   91.7816    9.9808 O.co2   1  UNL1       -0.5491
     28 O          67.5749   94.2325   10.5625 O.co2   1  UNL1       -0.5491
     29 C          63.5410   88.2584   14.3792 C.3     1  UNL1        0.1401
     30 C          63.8237   86.8349   14.0001 C.ar    1  UNL1        0.0007
     31 C          63.1057   86.2109   12.8403 C.ar    1  UNL1       -0.0015
     32 C          63.3885   84.7873   12.4613 C.ar    1  UNL1        0.0111
     33 C          64.3892   83.9879   13.2420 C.ar    1  UNL1        0.0577
     34 CL         64.6719   82.5644   12.8629 Cl      1  UNL1       -0.0822
     35 C          65.1071   84.6119   14.4018 C.ar    1  UNL1        0.0111
     36 C          64.8244   86.0354   14.7808 C.ar    1  UNL1       -0.0015
@<TRIPOS>UNITY_ATOM_ATTR
27 1
charge -1
@<TRIPOS>BOND
     1    25    24    1
     2    25    23    1
     3    23     1    1
     4     1     2   ar
     5     2     3    2
     6     2     4   ar
     7     4     5   ar
     8     5     6    2
     9     6    11    1
    10    11    12   ar
    11    12    13   ar
    12    13    14   ar
    13    14    17    1
    14    17    18    1
    15    18    19   ar
    16    19    20   ar
    17    20    21   ar
    18    21    22   ar
    19    14    15   ar
    20    15    16   ar
    21     5     7   ar
    22     7    29    1
    23    29    30    1
    24    30    31   ar
    25    31    32   ar
    26    32    33   ar
    27    33    34    1
    28    33    35   ar
    29    35    36   ar
    30     7     8   ar
    31     8     9    2
    32    25    26    1
    33    26    27   ar
    34    26    28   ar
    35     8     1   ar
    36    16    11   ar
    37    36    30   ar
    38    22    18   ar
    39     4    10    1
@<TRIPOS>MOLECULE
*****
 36 39 0 0 0
SMALL
GASTEIGER

@<TRIPOS>ATOM
      1 N          64.0098   85.0731   13.4230 N.ar    1  UNL1       -0.2340
      2 C          63.2278   85.0645   12.1430 C.ar    1  UNL1        0.3338
      3 O          63.0616   83.7872   11.3742 O.2     1  UNL1       -0.2463
      4 N          62.6120   86.3331   11.6318 N.ar    1  UNL1       -0.2776
      5 C          62.7782   87.6103   12.4006 C.ar    1  UNL1        0.2175
      6 N          62.1624   88.8790   11.8894 N.2     1  UNL1       -0.2128
      7 N          63.5601   87.6189   13.6806 N.ar    1  UNL1       -0.2479
      8 C          64.1759   86.3503   14.1918 C.ar    1  UNL1        0.3373
      9 O          64.9579   86.3589   15.4719 O.2     1  UNL1       -0.2461
     10 H          62.0988   86.3275   10.7917 H       1  UNL1        0.1733
     11 C          61.3804   88.8704   10.6094 C.ar    1  UNL1        0.0846
     12 C          61.3561   87.6388    9.7536 C.ar    1  UNL1        0.0223
     13 C          60.5740   87.6302    8.4736 C.ar    1  UNL1        0.0391
     14 C          59.8164   88.8533    8.0494 C.ar    1  UNL1        0.1473
     15 C          59.8407   90.0850    8.9052 C.ar    1  UNL1        0.0391
     16 C          60.6227   90.0935   10.1852 C.ar    1  UNL1        0.0223
     17 O          59.0343   88.8448    6.7694 O.3     1  UNL1       -0.4356
     18 C          58.9972   90.0702    5.9051 C.ar    1  UNL1        0.2366
     19 C          60.1842   90.7570    5.2975 C.ar    1  UNL1        0.0671
     20 C          59.6871   91.9352    4.5135 C.ar    1  UNL1        0.0597
     21 S          58.1927   91.9766    4.6365 S.2     1  UNL1        0.0169
     22 N          57.7662   90.8240    5.4966 N.ar    1  UNL1       -0.1735
     23 C          64.6256   83.8044   13.9342 C.3     1  UNL1        0.1205
     24 C          64.2690   81.2641   13.5224 C.3     1  UNL1        0.0079
     25 C          63.7866   82.5698   14.0815 C.3     1  UNL1        0.0594
     26 C          62.4653   82.6407   14.7880 C.2     1  UNL1        0.0519
     27 O          62.2044   83.7328   15.7827 O.co2   1  UNL1       -0.5491
     28 O          61.4050   81.6196   14.4999 O.co2   1  UNL1       -0.5491
     29 C          63.7263   88.8962   14.4495 C.3     1  UNL1        0.1401
     30 C          64.4378   90.0600   13.8256 C.ar    1  UNL1        0.0007
     31 C          63.8813   90.7050   12.5910 C.ar    1  UNL1       -0.0015
     32 C          64.5929   91.8689   11.9671 C.ar    1  UNL1        0.0111
     33 C          65.8608   92.3876   12.5778 C.ar    1  UNL1        0.0577
     34 CL         66.5723   93.5514   11.9538 Cl      1  UNL1       -0.0822
     35 C          66.4174   91.7426   13.8124 C.ar    1  UNL1        0.0111
     36 C          65.7059   90.5788   14.4363 C.ar    1  UNL1       -0.0015
@<TRIPOS>UNITY_ATOM_ATTR
27 1
charge -1
@<TRIPOS>BOND
     1    25    24    1
     2    25    23    1
     3    23     1    1
     4     1     2   ar
     5     2     3    2
     6     2     4   ar
     7     4     5   ar
     8     5     6    2
     9     6    11    1
    10    11    12   ar
    11    12    13   ar
    12    13    14   ar
    13    14    17    1
    14    17    18    1
    15    18    19   ar
    16    19    20   ar
    17    20    21   ar
    18    21    22   ar
    19    14    15   ar
    20    15    16   ar
    21     5     7   ar
    22     7    29    1
    23    29    30    1
    24    30    31   ar
    25    31    32   ar
    26    32    33   ar
    27    33    34    1
    28    33    35   ar
    29    35    36   ar
    30     7     8   ar
    31     8     9    2
    32    25    26    1
    33    26    27   ar
    34    26    28   ar
    35     8     1   ar
    36    16    11   ar
    37    36    30   ar
    38    22    18   ar
    39     4    10    1
@<TRIPOS>MOLECULE
*****
 36 39 0 0 0
SMALL
GASTEIGER

@<TRIPOS>ATOM
      1 N          63.5795   83.3793   12.3455 N.ar    1  UNL1       -0.2340
      2 C          62.6841   83.6742   11.1788 C.ar    1  UNL1        0.3338
      3 O          62.1990   82.5562   10.3043 O.2     1  UNL1       -0.2463
      4 N          62.2737   85.0871   10.8867 N.ar    1  UNL1       -0.2776
      5 C          62.7588   86.2050   11.7611 C.ar    1  UNL1        0.2175
      6 N          62.3484   87.6179   11.4690 N.2     1  UNL1       -0.2128
      7 N          63.6542   85.9101   12.9278 N.ar    1  UNL1       -0.2479
      8 C          64.0646   84.4973   13.2200 C.ar    1  UNL1        0.3373
      9 O          64.9601   84.2024   14.3868 O.2     1  UNL1       -0.2461
     10 H          61.6860   85.2806   10.1209 H       1  UNL1        0.1733
     11 C          61.4530   87.9128   10.3023 C.ar    1  UNL1        0.0846
     12 C          60.7824   86.7894    9.5687 C.ar    1  UNL1        0.0223
     13 C          59.8869   87.0843    8.4020 C.ar    1  UNL1        0.0391
     14 C          59.6621   88.5027    7.9689 C.ar    1  UNL1        0.1473
     15 C          60.3326   89.6262    8.7025 C.ar    1  UNL1        0.0391
     16 C          61.2281   89.3313    9.8692 C.ar    1  UNL1        0.0223
     17 O          58.7666   88.7977    6.8021 O.3     1  UNL1       -0.4356
     18 C          59.0108   90.0132    5.9578 C.ar    1  UNL1        0.2366
     19 C          60.3392   90.4678    5.4300 C.ar    1  UNL1        0.0671
     20 C          60.1188   91.7231    4.6391 C.ar    1  UNL1        0.0597
     21 S          58.6541   92.0444    4.6780 S.2     1  UNL1        0.0169
     22 N          57.9692   90.9876    5.4930 N.ar    1  UNL1       -0.1735
     23 C          63.9899   81.9664   12.6377 C.3     1  UNL1        0.1205
     24 C          62.8804   79.6356   12.3437 C.3     1  UNL1        0.0079
     25 C          62.9604   80.9564   13.0501 C.3     1  UNL1        0.0594
     26 C          62.0110   81.2673   14.1690 C.2     1  UNL1        0.0519
     27 O          60.6658   80.6051   14.2170 O.co2   1  UNL1       -0.5491
     28 O          62.4066   82.2402   15.2399 O.co2   1  UNL1       -0.5491
     29 C          64.1393   87.0281   13.8024 C.3     1  UNL1        0.1401
     30 C          63.7220   87.0895   15.2418 C.ar    1  UNL1        0.0007
     31 C          63.5113   85.8223   16.0163 C.ar    1  UNL1       -0.0015
     32 C          63.0939   85.8837   17.4558 C.ar    1  UNL1        0.0111
     33 C          62.8874   87.2122   18.1208 C.ar    1  UNL1        0.0577
     34 CL         62.4701   87.2736   19.5602 Cl      1  UNL1       -0.0822
     35 C          63.0982   88.4794   17.3463 C.ar    1  UNL1        0.0111
     36 C          63.5155   88.4181   15.9069 C.ar    1  UNL1       -0.0015
@<TRIPOS>UNITY_ATOM_ATTR
27 1
charge -1
@<TRIPOS>BOND
     1    25    24    1
     2    25    23    1
     3    23     1    1
     4     1     2   ar
     5     2     3    2
     6     2     4   ar
     7     4     5   ar
     8     5     6    2
     9     6    11    1
    10    11    12   ar
    11    12    13   ar
    12    13    14   ar
    13    14    17    1
    14    17    18    1
    15    18    19   ar
    16    19    20   ar
    17    20    21   ar
    18    21    22   ar
    19    14    15   ar
    20    15    16   ar
    21     5     7   ar
    22     7    29    1
    23    29    30    1
    24    30    31   ar
    25    31    32   ar
    26    32    33   ar
    27    33    34    1
    28    33    35   ar
    29    35    36   ar
    30     7     8   ar
    31     8     9    2
    32    25    26    1
    33    26    27   ar
    34    26    28   ar
    35     8     1   ar
    36    16    11   ar
    37    36    30   ar
    38    22    18   ar
    39     4    10    1
@<TRIPOS>MOLECULE
*****
 36 39 0 0 0
SMALL
GASTEIGER

@<TRIPOS>ATOM
      1 N          64.1311   89.2785   13.4546 N.ar    1  UNL1       -0.2340
      2 C          63.4411   89.8308   12.2427 C.ar    1  UNL1        0.3338
      3 O          63.6970   91.2451   11.8132 O.2     1  UNL1       -0.2463
      4 N          62.4951   88.9689   11.4602 N.ar    1  UNL1       -0.2776
      5 C          62.2392   87.5547   11.8897 C.ar    1  UNL1        0.2175
      6 N          61.2932   86.6928   11.1072 N.2     1  UNL1       -0.2128
      7 N          62.9292   87.0024   13.1015 N.ar    1  UNL1       -0.2479
      8 C          63.8752   87.8643   13.8840 C.ar    1  UNL1        0.3373
      9 O          64.5653   87.3119   15.0959 O.2     1  UNL1       -0.2461
     10 H          62.0422   89.3314   10.6648 H       1  UNL1        0.1733
     11 C          60.6031   87.2451    9.8953 C.ar    1  UNL1        0.0846
     12 C          60.1356   86.3196    8.8114 C.ar    1  UNL1        0.0223
     13 C          59.4455   86.8720    7.5994 C.ar    1  UNL1        0.0391
     14 C          59.2230   88.3498    7.4715 C.ar    1  UNL1        0.1473
     15 C          59.6904   89.2753    8.5554 C.ar    1  UNL1        0.0391
     16 C          60.3805   88.7230    9.7673 C.ar    1  UNL1        0.0223
     17 O          58.5329   88.9022    6.2595 O.3     1  UNL1       -0.4356
     18 C          59.0369   90.1609    5.6180 C.ar    1  UNL1        0.2366
     19 C          60.4656   90.4660    5.2777 C.ar    1  UNL1        0.0671
     20 C          60.5124   91.8292    4.6534 C.ar    1  UNL1        0.0597
     21 S          59.1127   92.3665    4.6079 S.2     1  UNL1        0.0169
     22 N          58.2007   91.3354    5.2040 N.ar    1  UNL1       -0.1735
     23 C          65.0771   90.1404   14.2370 C.3     1  UNL1        0.1205
     24 C          63.4521   90.3763   16.2504 C.3     1  UNL1        0.0079
     25 C          64.5808   90.9147   15.4220 C.3     1  UNL1        0.0594
     26 C          65.2131   92.2273   15.7785 C.2     1  UNL1        0.0519
     27 O          65.1269   92.7441   17.1840 O.co2   1  UNL1       -0.5491
     28 O          65.9316   93.0231   14.7295 O.co2   1  UNL1       -0.5491
     29 C          62.6733   85.5881   13.5310 C.3     1  UNL1        0.1401
     30 C          62.9472   84.4560   12.5859 C.ar    1  UNL1        0.0007
     31 C          62.6305   83.0470   12.9914 C.ar    1  UNL1       -0.0015
     32 C          62.9045   81.9149   12.0462 C.ar    1  UNL1        0.0111
     33 C          63.4951   82.1918   10.6955 C.ar    1  UNL1        0.0577
     34 CL         63.7691   81.0598    9.7504 Cl      1  UNL1       -0.0822
     35 C          63.8118   83.6008   10.2900 C.ar    1  UNL1        0.0111
     36 C          63.5379   84.7329   11.2351 C.ar    1  UNL1       -0.0015
@<TRIPOS>UNITY_ATOM_ATTR
27 1
charge -1
@<TRIPOS>BOND
     1    25    24    1
     2    25    23    1
     3    23     1    1
     4     1     2   ar
     5     2     3    2
     6     2     4   ar
     7     4     5   ar
     8     5     6    2
     9     6    11    1
    10    11    12   ar
    11    12    13   ar
    12    13    14   ar
    13    14    17    1
    14    17    18    1
    15    18    19   ar
    16    19    20   ar
    17    20    21   ar
    18    21    22   ar
    19    14    15   ar
    20    15    16   ar
    21     5     7   ar
    22     7    29    1
    23    29    30    1
    24    30    31   ar
    25    31    32   ar
    26    32    33   ar
    27    33    34    1
    28    33    35   ar
    29    35    36   ar
    30     7     8   ar
    31     8     9    2
    32    25    26    1
    33    26    27   ar
    34    26    28   ar
    35     8     1   ar
    36    16    11   ar
    37    36    30   ar
    38    22    18   ar
    39     4    10    1
