@<TRIPOS>MOLECULE
*****
 35 39 0 0 0
SMALL
GASTEIGER

@<TRIPOS>ATOM
      1 C          65.1971   92.4103   11.0881 C.ar    1  UNL1        0.2299
      2 N          65.3096   91.8933   12.4917 N.ar    1  UNL1       -0.2102
      3 C          64.2259   90.8773   12.6997 C.ar    1  UNL1        0.1186
      4 C          63.4437   90.7663   11.4246 C.ar    1  UNL1        0.1645
      5 O          64.0439   91.7137   10.4286 O.2     1  UNL1       -0.4360
      6 O          64.8378   94.2552   10.6570 O.3     1  UNL1       -0.3779
      7 C          66.0824   93.4426   10.4552 C.3     1  UNL1        0.1587
      8 C          67.0195   92.2714   10.4732 C.3     1  UNL1        0.0531
      9 C          68.4097   92.4148    9.9283 C.3     1  UNL1        0.0715
     10 N          68.8627   93.7294    9.3654 N.3     1  UNL1       -0.2973
     11 C          67.9256   94.9004    9.3474 C.3     1  UNL1        0.0715
     12 C          66.5355   94.7571    9.8923 C.3     1  UNL1        0.0531
     13 H          64.1553   93.7039   11.0707 H       1  UNL1        0.2109
     14 H          69.1369   93.5568    8.3982 H       1  UNL1        0.1233
     15 C          63.9695   90.1073   13.9613 C.ar    1  UNL1        0.0209
     16 C          63.5287   90.8259   15.2020 C.ar    1  UNL1        0.0039
     17 C          63.2723   90.0559   16.4634 C.ar    1  UNL1        0.0297
     18 C          63.4566   88.5675   16.4843 C.ar    1  UNL1        0.1401
     19 F          63.2002   87.7975   17.7458 F       1  UNL1       -0.2042
     20 C          63.8974   87.8489   15.2436 C.ar    1  UNL1        0.0297
     21 C          64.1539   88.6189   13.9821 C.ar    1  UNL1        0.0039
     22 C          62.2677   89.8659   11.1872 C.ar    1  UNL1        0.0404
     23 C          60.8873   90.3220   11.5563 C.ar    1  UNL1        0.0239
     24 C          59.7113   89.4216   11.3189 C.ar    1  UNL1        0.1004
     25 N          59.9157   88.0650   10.7124 N.ar    1  UNL1       -0.2294
     26 C          61.2962   87.6088   10.3433 C.ar    1  UNL1        0.1286
     27 C          62.4721   88.5093   10.5807 C.ar    1  UNL1        0.0372
     28 N          61.5007   86.2523    9.7368 N.pl3   1  UNL1       -0.3197
     29 H          61.0480   86.0161    8.8950 H       1  UNL1        0.1481
     30 C          62.3949   85.2555   10.4128 C.3     1  UNL1        0.0704
     31 C          62.4084   85.1539   11.9093 C.3     1  UNL1        0.0195
     32 C          63.3025   84.1572   12.5853 C.3     1  UNL1        0.0017
     33 C          64.1832   83.2620   11.7648 C.3     1  UNL1        0.0001
     34 C          64.1696   83.3635   10.2683 C.3     1  UNL1        0.0017
     35 C          63.2754   84.3604    9.5923 C.3     1  UNL1        0.0195
@<TRIPOS>BOND
     1     6     7    1
     2     7     1    1
     3     1     2   ar
     4     2     3   ar
     5     3    15    1
     6    15    16   ar
     7    16    17   ar
     8    17    18   ar
     9    18    19    1
    10    18    20   ar
    11    20    21   ar
    12     3     4   ar
    13     4    22    1
    14    22    23   ar
    15    23    24   ar
    16    24    25   ar
    17    25    26   ar
    18    26    28    1
    19    28    30    1
    20    30    31    1
    21    31    32    1
    22    32    33    1
    23    33    34    1
    24    34    35    1
    25    26    27   ar
    26     4     5   ar
    27     7     8    1
    28     8     9    1
    29     9    10    1
    30    10    11    1
    31    11    12    1
    32    12     7    1
    33     5     1   ar
    34    21    15   ar
    35    27    22   ar
    36    35    30    1
    37     6    13    1
    38    28    29    1
    39    10    14    1
@<TRIPOS>MOLECULE
*****
 35 39 0 0 0
SMALL
GASTEIGER

@<TRIPOS>ATOM
      1 C          65.2324   92.4596   11.1846 C.ar    1  UNL1        0.2299
      2 N          64.1205   91.7901   10.4327 N.ar    1  UNL1       -0.2102
      3 C          63.5052   90.7610   11.3341 C.ar    1  UNL1        0.1186
      4 C          64.2370   90.7945   12.6431 C.ar    1  UNL1        0.1645
      5 O          65.3044   91.8442   12.5507 O.2     1  UNL1       -0.4360
      6 O          64.9866   94.3720   11.2103 O.3     1  UNL1       -0.3779
      7 C          66.1170   93.5525   10.6621 C.3     1  UNL1        0.1587
      8 C          66.9402   92.3533   10.2954 C.3     1  UNL1        0.0531
      9 C          68.2555   92.5318    9.5966 C.3     1  UNL1        0.0715
     10 N          68.7475   93.9093    9.2645 N.3     1  UNL1       -0.2973
     11 C          67.9243   95.1084    9.6312 C.3     1  UNL1        0.0715
     12 C          66.6091   94.9300   10.3300 C.3     1  UNL1        0.0531
     13 H          64.3168   93.7839   11.5930 H       1  UNL1        0.2109
     14 H          68.8778   93.9397    8.2533 H       1  UNL1        0.1233
     15 C          62.3594   89.8571   10.9874 C.ar    1  UNL1        0.0209
     16 C          62.5488   88.7565    9.9859 C.ar    1  UNL1        0.0039
     17 C          61.4030   87.8527    9.6393 C.ar    1  UNL1        0.0297
     18 C          60.0679   88.0494   10.2940 C.ar    1  UNL1        0.1401
     19 F          58.9221   87.1455    9.9473 F       1  UNL1       -0.2042
     20 C          59.8785   89.1500   11.2954 C.ar    1  UNL1        0.0297
     21 C          61.0243   90.0538   11.6421 C.ar    1  UNL1        0.0039
     22 C          63.9514   89.9300   13.8352 C.ar    1  UNL1        0.0404
     23 C          63.4001   90.5404   15.0895 C.ar    1  UNL1        0.0239
     24 C          63.1145   89.6759   16.2816 C.ar    1  UNL1        0.1004
     25 N          63.3803   88.2009   16.2194 N.ar    1  UNL1       -0.2294
     26 C          63.9316   87.5904   14.9650 C.ar    1  UNL1        0.1286
     27 C          64.2172   88.4550   13.7729 C.ar    1  UNL1        0.0372
     28 N          64.1974   86.1156   14.9027 N.pl3   1  UNL1       -0.3197
     29 H          64.5920   85.6534   15.6773 H       1  UNL1        0.1481
     30 C          63.8620   85.3447   13.6603 C.3     1  UNL1        0.0704
     31 C          62.8169   85.8614   12.7165 C.3     1  UNL1        0.0195
     32 C          62.4815   85.0907   11.4741 C.3     1  UNL1        0.0017
     33 C          63.1912   83.8033   11.1756 C.3     1  UNL1        0.0001
     34 C          64.2363   83.2867   12.1194 C.3     1  UNL1        0.0017
     35 C          64.5717   84.0575   13.3618 C.3     1  UNL1        0.0195
@<TRIPOS>BOND
     1     6     7    1
     2     7     1    1
     3     1     2   ar
     4     2     3   ar
     5     3    15    1
     6    15    16   ar
     7    16    17   ar
     8    17    18   ar
     9    18    19    1
    10    18    20   ar
    11    20    21   ar
    12     3     4   ar
    13     4    22    1
    14    22    23   ar
    15    23    24   ar
    16    24    25   ar
    17    25    26   ar
    18    26    28    1
    19    28    30    1
    20    30    31    1
    21    31    32    1
    22    32    33    1
    23    33    34    1
    24    34    35    1
    25    26    27   ar
    26     4     5   ar
    27     7     8    1
    28     8     9    1
    29     9    10    1
    30    10    11    1
    31    11    12    1
    32    12     7    1
    33     5     1   ar
    34    21    15   ar
    35    27    22   ar
    36    35    30    1
    37     6    13    1
    38    28    29    1
    39    10    14    1
@<TRIPOS>MOLECULE
*****
 35 39 0 0 0
SMALL
GASTEIGER

@<TRIPOS>ATOM
      1 C          64.9214   91.9828   12.5036 C.ar    1  UNL1        0.2299
      2 N          64.9786   91.2723   13.8234 N.ar    1  UNL1       -0.2102
      3 C          64.1030   90.0577   13.7342 C.ar    1  UNL1        0.1186
      4 C          63.5047   90.0175   12.3592 C.ar    1  UNL1        0.1645
      5 O          64.0105   91.2073   11.5986 O.2     1  UNL1       -0.4360
      6 O          65.4610   93.4565   13.6241 O.3     1  UNL1       -0.3779
      7 C          65.6477   93.2469   12.1506 C.3     1  UNL1        0.1587
      8 C          65.5821   92.5982   10.7996 C.3     1  UNL1        0.0531
      9 C          66.1780   93.2865    9.6075 C.3     1  UNL1        0.0715
     10 N          66.8395   94.6235    9.7663 N.3     1  UNL1       -0.2973
     11 C          66.9050   95.2720   11.1172 C.3     1  UNL1        0.0715
     12 C          66.3092   94.5838   12.3093 C.3     1  UNL1        0.0531
     13 H          64.9912   92.6966   14.0018 H       1  UNL1        0.2109
     14 H          66.3455   95.2711    9.1523 H       1  UNL1        0.1233
     15 C          63.8671   89.0585   14.8279 C.ar    1  UNL1        0.0209
     16 C          64.3462   87.6460   14.6696 C.ar    1  UNL1        0.0039
     17 C          64.1103   86.6470   15.7633 C.ar    1  UNL1        0.0297
     18 C          63.3953   87.0605   17.0153 C.ar    1  UNL1        0.1401
     19 F          63.1593   86.0614   18.1091 F       1  UNL1       -0.2042
     20 C          62.9161   88.4730   17.1737 C.ar    1  UNL1        0.0297
     21 C          63.1520   89.4720   16.0800 C.ar    1  UNL1        0.0039
     22 C          62.5655   88.9712   11.8366 C.ar    1  UNL1        0.0404
     23 C          61.1287   89.3152   11.5773 C.ar    1  UNL1        0.0239
     24 C          60.1895   88.2689   11.0547 C.ar    1  UNL1        0.1004
     25 N          60.6870   86.8786   10.7914 N.ar    1  UNL1       -0.2294
     26 C          62.1239   86.5345   11.0507 C.ar    1  UNL1        0.1286
     27 C          63.0630   87.5808   11.5733 C.ar    1  UNL1        0.0372
     28 N          62.6214   85.1442   10.7875 N.pl3   1  UNL1       -0.3197
     29 H          62.9694   84.9061    9.8978 H       1  UNL1        0.1481
     30 C          62.5888   84.1164   11.8796 C.3     1  UNL1        0.0704
     31 C          62.6042   82.6564   11.5362 C.3     1  UNL1        0.0195
     32 C          62.5715   81.6287   12.6283 C.3     1  UNL1        0.0017
     33 C          62.5235   82.0610   14.0638 C.3     1  UNL1        0.0001
     34 C          62.5081   83.5210   14.4073 C.3     1  UNL1        0.0017
     35 C          62.5407   84.5488   13.3151 C.3     1  UNL1        0.0195
@<TRIPOS>BOND
     1     6     7    1
     2     7     1    1
     3     1     2   ar
     4     2     3   ar
     5     3    15    1
     6    15    16   ar
     7    16    17   ar
     8    17    18   ar
     9    18    19    1
    10    18    20   ar
    11    20    21   ar
    12     3     4   ar
    13     4    22    1
    14    22    23   ar
    15    23    24   ar
    16    24    25   ar
    17    25    26   ar
    18    26    28    1
    19    28    30    1
    20    30    31    1
    21    31    32    1
    22    32    33    1
    23    33    34    1
    24    34    35    1
    25    26    27   ar
    26     4     5   ar
    27     7     8    1
    28     8     9    1
    29     9    10    1
    30    10    11    1
    31    11    12    1
    32    12     7    1
    33     5     1   ar
    34    21    15   ar
    35    27    22   ar
    36    35    30    1
    37     6    13    1
    38    28    29    1
    39    10    14    1
@<TRIPOS>MOLECULE
*****
 35 39 0 0 0
SMALL
GASTEIGER

@<TRIPOS>ATOM
      1 C          64.9775   91.6102   13.3251 C.ar    1  UNL1        0.2299
      2 N          64.1558   90.9639   12.2494 N.ar    1  UNL1       -0.2102
      3 C          63.6528   89.6523   12.7753 C.ar    1  UNL1        0.1186
      4 C          64.1637   89.4879   14.1761 C.ar    1  UNL1        0.1645
      5 O          64.9824   90.6980   14.5159 O.2     1  UNL1       -0.4360
      6 O          65.7451   92.7125   14.7088 O.3     1  UNL1       -0.3779
      7 C          65.6723   92.9360   13.2273 C.3     1  UNL1        0.1587
      8 C          65.3582   92.6990   11.7797 C.3     1  UNL1        0.0531
      9 C          65.7643   93.7102   10.7489 C.3     1  UNL1        0.0715
     10 N          66.4844   94.9584   11.1656 N.3     1  UNL1       -0.2973
     11 C          66.7984   95.1953   12.6130 C.3     1  UNL1        0.0715
     12 C          66.3924   94.1841   13.6439 C.3     1  UNL1        0.0531
     13 H          65.3227   91.8676   14.9294 H       1  UNL1        0.2109
     14 H          65.9138   95.7449   10.8555 H       1  UNL1        0.1233
     15 C          62.7903   88.6763   12.0312 C.ar    1  UNL1        0.0209
     16 C          63.1556   87.2217   12.0038 C.ar    1  UNL1        0.0039
     17 C          62.2931   86.2458   11.2597 C.ar    1  UNL1        0.0297
     18 C          61.0655   86.7245   10.5429 C.ar    1  UNL1        0.1401
     19 F          60.2030   85.7485    9.7988 F       1  UNL1       -0.2042
     20 C          60.7003   88.1791   10.5703 C.ar    1  UNL1        0.0297
     21 C          61.5627   89.1550   11.3144 C.ar    1  UNL1        0.0039
     22 C          63.9018   88.3188   15.0786 C.ar    1  UNL1        0.0404
     23 C          63.1163   88.5079   16.3423 C.ar    1  UNL1        0.0239
     24 C          62.8545   87.3388   17.2448 C.ar    1  UNL1        0.1004
     25 N          63.3781   85.9804   16.8835 N.ar    1  UNL1       -0.2294
     26 C          64.1637   85.7911   15.6197 C.ar    1  UNL1        0.1286
     27 C          64.4255   86.9604   14.7173 C.ar    1  UNL1        0.0372
     28 N          64.6873   84.4328   15.2584 N.pl3   1  UNL1       -0.3197
     29 H          65.4912   84.0805   15.7044 H       1  UNL1        0.1481
     30 C          63.9862   83.6111   14.2175 C.3     1  UNL1        0.0704
     31 C          62.8318   82.7354   14.6056 C.3     1  UNL1        0.0195
     32 C          62.1307   81.9138   13.5648 C.3     1  UNL1        0.0017
     33 C          62.5839   81.9677   12.1360 C.3     1  UNL1        0.0001
     34 C          63.7383   82.8434   11.7478 C.3     1  UNL1        0.0017
     35 C          64.4394   83.6651   12.7887 C.3     1  UNL1        0.0195
@<TRIPOS>BOND
     1     6     7    1
     2     7     1    1
     3     1     2   ar
     4     2     3   ar
     5     3    15    1
     6    15    16   ar
     7    16    17   ar
     8    17    18   ar
     9    18    19    1
    10    18    20   ar
    11    20    21   ar
    12     3     4   ar
    13     4    22    1
    14    22    23   ar
    15    23    24   ar
    16    24    25   ar
    17    25    26   ar
    18    26    28    1
    19    28    30    1
    20    30    31    1
    21    31    32    1
    22    32    33    1
    23    33    34    1
    24    34    35    1
    25    26    27   ar
    26     4     5   ar
    27     7     8    1
    28     8     9    1
    29     9    10    1
    30    10    11    1
    31    11    12    1
    32    12     7    1
    33     5     1   ar
    34    21    15   ar
    35    27    22   ar
    36    35    30    1
    37     6    13    1
    38    28    29    1
    39    10    14    1
@<TRIPOS>MOLECULE
*****
 35 39 0 0 0
SMALL
GASTEIGER

@<TRIPOS>ATOM
      1 C          62.5787   84.9799   12.5184 C.ar    1  UNL1        0.2299
      2 N          61.6740   85.2154   11.3454 N.ar    1  UNL1       -0.2102
      3 C          61.7522   86.6692   10.9844 C.ar    1  UNL1        0.1186
      4 C          62.7051   87.3322   11.9343 C.ar    1  UNL1        0.1645
      5 O          63.2160   86.2881   12.8825 O.2     1  UNL1       -0.4360
      6 O          62.6932   84.5696   14.3992 O.3     1  UNL1       -0.3779
      7 C          62.8062   83.6666   13.2067 C.3     1  UNL1        0.1587
      8 C          62.8402   83.2198   11.7751 C.3     1  UNL1        0.0531
      9 C          63.0624   81.7733   11.4460 C.3     1  UNL1        0.0715
     10 N          63.2507   80.7737   12.5484 N.3     1  UNL1       -0.2973
     11 C          63.2167   81.2205   13.9799 C.3     1  UNL1        0.0715
     12 C          62.9944   82.6669   14.3090 C.3     1  UNL1        0.0531
     13 H          62.5401   85.4801   14.1019 H       1  UNL1        0.2109
     14 H          64.1601   80.3370   12.3978 H       1  UNL1        0.1233
     15 C          61.0080   87.3421    9.8692 C.ar    1  UNL1        0.0209
     16 C          60.7643   86.6113    8.5821 C.ar    1  UNL1        0.0039
     17 C          60.0201   87.2841    7.4670 C.ar    1  UNL1        0.0297
     18 C          59.5197   88.6877    7.6390 C.ar    1  UNL1        0.1401
     19 F          58.7755   89.3605    6.5238 F       1  UNL1       -0.2042
     20 C          59.7634   89.4184    8.9260 C.ar    1  UNL1        0.0297
     21 C          60.5075   88.7456   10.0411 C.ar    1  UNL1        0.0039
     22 C          63.0812   88.7843   11.9359 C.ar    1  UNL1        0.0404
     23 C          63.0340   89.5727   10.6607 C.ar    1  UNL1        0.0239
     24 C          63.4101   91.0247   10.6623 C.ar    1  UNL1        0.1004
     25 N          63.8334   91.6885   11.9391 N.ar    1  UNL1       -0.2294
     26 C          63.8806   90.9001   13.2145 C.ar    1  UNL1        0.1286
     27 C          63.5045   89.4480   13.2128 C.ar    1  UNL1        0.0372
     28 N          64.3039   91.5637   14.4912 N.pl3   1  UNL1       -0.3197
     29 H          63.6367   91.7630   15.1871 H       1  UNL1        0.1481
     30 C          65.7439   91.9239   14.7078 C.3     1  UNL1        0.0704
     31 C          66.1676   92.5845   15.9861 C.3     1  UNL1        0.0195
     32 C          67.6075   92.9447   16.2027 C.3     1  UNL1        0.0017
     33 C          68.6237   92.6443   15.1410 C.3     1  UNL1        0.0001
     34 C          68.2000   91.9838   13.8627 C.3     1  UNL1        0.0017
     35 C          66.7600   91.6236   13.6461 C.3     1  UNL1        0.0195
@<TRIPOS>BOND
     1     6     7    1
     2     7     1    1
     3     1     2   ar
     4     2     3   ar
     5     3    15    1
     6    15    16   ar
     7    16    17   ar
     8    17    18   ar
     9    18    19    1
    10    18    20   ar
    11    20    21   ar
    12     3     4   ar
    13     4    22    1
    14    22    23   ar
    15    23    24   ar
    16    24    25   ar
    17    25    26   ar
    18    26    28    1
    19    28    30    1
    20    30    31    1
    21    31    32    1
    22    32    33    1
    23    33    34    1
    24    34    35    1
    25    26    27   ar
    26     4     5   ar
    27     7     8    1
    28     8     9    1
    29     9    10    1
    30    10    11    1
    31    11    12    1
    32    12     7    1
    33     5     1   ar
    34    21    15   ar
    35    27    22   ar
    36    35    30    1
    37     6    13    1
    38    28    29    1
    39    10    14    1
