@<TRIPOS>MOLECULE
*****
 67 75 0 0 0
SMALL
GASTEIGER

@<TRIPOS>ATOM
      1 N          58.5658   93.8576   -4.2695 N.3     1  UNL1       -0.1862
      2 C          59.4634   95.0582   -4.3206 C.3     1  UNL1        0.1775
      3 C          59.9907   95.6551   -3.0495 C.2     1  UNL1        0.2452
      4 O          60.8884   96.8558   -3.1007 O.2     1  UNL1       -0.2732
      5 N          59.6203   95.0514   -1.7273 N.am    1  UNL1       -0.2541
      6 C          58.7226   93.8508   -1.6762 C.3     1  UNL1        0.1908
      7 C          58.3522   93.2470   -0.3539 C.3     1  UNL1        0.1359
      8 N          58.8794   93.8440    0.9172 N.am    1  UNL1       -0.2705
      9 C          59.7771   95.0447    0.8660 C.2     1  UNL1        0.2445
     10 O          60.3044   95.6416    2.1371 O.2     1  UNL1       -0.2731
     11 C          60.1475   95.6484   -0.4562 C.3     1  UNL1        0.1577
     12 N          58.1954   93.2539   -2.9472 N.am    1  UNL1       -0.1863
     13 C          57.2977   92.0532   -2.8961 C.2     1  UNL1        0.3191
     14 O          56.9273   91.4495   -1.5738 O.2     1  UNL1       -0.2512
     15 N          56.7704   91.4562   -4.1672 N.am    1  UNL1       -0.2836
     16 H          57.0135   91.8525   -5.0350 H       1  UNL1        0.1513
     17 C          58.0385   93.2606   -5.5406 C.3     1  UNL1        0.1188
     18 C          55.7988   94.5450   -5.8305 C.2     1  UNL1       -0.0034
     19 C          57.0925   94.0443   -6.4012 C.2     1  UNL1       -0.0071
     20 C          58.5090   93.2403    2.2394 C.3     1  UNL1        0.1217
     21 C          59.5346   92.4867    3.0335 C.ar    1  UNL1        0.0135
     22 C          60.9814   92.5512    2.6429 C.ar    1  UNL1       -0.0012
     23 C          62.0069   91.7977    3.4369 C.ar    1  UNL1       -0.0002
     24 C          61.5856   90.9798    4.6216 C.ar    1  UNL1        0.0016
     25 C          60.1388   90.9153    5.0122 C.ar    1  UNL1        0.0214
     26 C          59.4300   90.1980    6.1225 C.ar    1  UNL1        0.0722
     27 C          57.9664   90.5081    6.0147 C.ar    1  UNL1        0.0805
     28 N          57.7707   91.4171    4.8378 N.ar    1  UNL1       -0.3241
     29 C          56.4621   91.9763    4.3637 C.3     1  UNL1        0.1305
     30 C          59.1133   91.6688    4.2182 C.ar    1  UNL1        0.0577
     31 C          60.0720   89.3238    7.1588 C.2     1  UNL1        0.2510
     32 O          60.3943   87.8942    6.8389 O.2     1  UNL1       -0.2698
     33 N          60.3918   89.8794    8.5150 N.am    1  UNL1       -0.2791
     34 H          60.1803   90.8177    8.7249 H       1  UNL1        0.1552
     35 C          61.0338   89.0054    9.5512 C.ar    1  UNL1        0.0701
     36 C          60.4361   87.6696    9.8805 C.ar    1  UNL1        0.0191
     37 C          61.0781   86.7956   10.9168 C.ar    1  UNL1        0.0356
     38 C          62.3178   87.2573   11.6238 C.ar    1  UNL1        0.1318
     39 N          62.9156   88.5931   11.2945 N.ar    1  UNL1       -0.2279
     40 C          62.2736   89.4671   10.2582 C.ar    1  UNL1        0.1149
     41 N          62.9599   86.3833   12.6600 N.pl3   1  UNL1       -0.2932
     42 C          63.8244   86.8494   13.7937 C.3     1  UNL1        0.0923
     43 C          64.2490   85.6441   14.5790 C.3     1  UNL1        0.0245
     44 C          63.6469   84.4328   13.9306 C.3     1  UNL1        0.0360
     45 C          64.4436   83.9759   15.1165 C.3     1  UNL1        0.0204
     46 C          64.3339   82.4823   15.2011 C.3     1  UNL1        0.0722
     47 N          63.4693   82.0161   14.0675 N.3     1  UNL1       -0.2726
     48 C          63.0447   83.2216   13.2822 C.3     1  UNL1        0.0738
     49 C          62.8501   84.8897   12.7446 C.3     1  UNL1        0.0935
     50 C          63.0951   80.5941   13.7711 C.3     1  UNL1        0.0721
     51 C          62.4873   80.2390   12.4465 C.3     1  UNL1        0.0188
     52 C          61.0452   96.8490   -0.5073 C.3     1  UNL1        0.0556
     53 C          62.5310   96.6801   -0.3900 C.ar    1  UNL1       -0.0198
     54 C          63.3504   96.3798   -1.6100 C.ar    1  UNL1       -0.0011
     55 C          64.8362   96.2109   -1.4927 C.ar    1  UNL1        0.0363
     56 C          65.5027   96.3423   -0.1554 C.ar    1  UNL1        0.1337
     57 O          66.9886   96.1734   -0.0381 O.3     1  UNL1       -0.5055
     58 C          64.6834   96.6427    1.0647 C.ar    1  UNL1        0.0363
     59 C          63.1975   96.8115    0.9474 C.ar    1  UNL1       -0.0011
     60 H          67.5004   95.9858   -0.8002 H       1  UNL1        0.2922
     61 C          55.8728   90.2556   -4.1160 C.3     1  UNL1        0.1177
     62 C          54.8187   90.0620   -5.1656 C.ar    1  UNL1       -0.0025
     63 C          53.6132   89.2194   -4.8713 C.ar    1  UNL1       -0.0026
     64 C          52.5591   89.0257   -5.9208 C.ar    1  UNL1       -0.0003
     65 C          52.7107   89.6747   -7.2646 C.ar    1  UNL1       -0.0000
     66 C          53.9163   90.5173   -7.5590 C.ar    1  UNL1       -0.0003
     67 C          54.9703   90.7109   -6.5094 C.ar    1  UNL1       -0.0026
@<TRIPOS>BOND
     1    18    19    2
     2    19    17    1
     3    17     1    1
     4     1     2    1
     5     2     3    1
     6     3     4    2
     7     3     5   am
     8     5     6    1
     9     6     7    1
    10     7     8    1
    11     8    20    1
    12    20    21    1
    13    21    22   ar
    14    22    23   ar
    15    23    24   ar
    16    24    25   ar
    17    25    26   ar
    18    26    31    1
    19    31    32    2
    20    31    33   am
    21    33    35    1
    22    35    36   ar
    23    36    37   ar
    24    37    38   ar
    25    38    41    1
    26    41    42    1
    27    42    43    1
    28    43    44    1
    29    44    45    1
    30    45    46    1
    31    46    47    1
    32    47    50    1
    33    50    51    1
    34    47    48    1
    35    44    49    1
    36    38    39   ar
    37    39    40   ar
    38    26    27   ar
    39    27    28   ar
    40    28    29    1
    41    28    30   ar
    42     8     9   am
    43     9    10    2
    44     9    11    1
    45    11    52    1
    46    52    53    1
    47    53    54   ar
    48    54    55   ar
    49    55    56   ar
    50    56    57    1
    51    56    58   ar
    52    58    59   ar
    53     6    12    1
    54    12    13   am
    55    13    14    2
    56    13    15   am
    57    15    61    1
    58    61    62    1
    59    62    63   ar
    60    63    64   ar
    61    64    65   ar
    62    65    66   ar
    63    66    67   ar
    64    12     1    1
    65    67    62   ar
    66    11     5    1
    67    59    53   ar
    68    30    21   ar
    69    30    25   ar
    70    40    35   ar
    71    49    41    1
    72    48    44    1
    73    33    34    1
    74    57    60    1
    75    15    16    1
@<TRIPOS>MOLECULE
*****
 67 75 0 0 0
SMALL
GASTEIGER

@<TRIPOS>ATOM
      1 N          62.1472   94.7561   -3.6965 N.3     1  UNL1       -0.1862
      2 C          61.0351   94.4603   -4.6586 C.3     1  UNL1        0.1775
      3 C          59.7017   94.0027   -4.1460 C.2     1  UNL1        0.2452
      4 O          58.5896   93.7069   -5.1082 O.2     1  UNL1       -0.2732
      5 N          59.4804   93.8409   -2.6713 N.am    1  UNL1       -0.2541
      6 C          60.5925   94.1367   -1.7092 C.3     1  UNL1        0.1908
      7 C          60.3712   93.9750   -0.2344 C.3     1  UNL1        0.1359
      8 N          59.0379   93.5174    0.2782 N.am    1  UNL1       -0.2705
      9 C          57.9258   93.2216   -0.6840 C.2     1  UNL1        0.2445
     10 O          56.5924   92.7640   -0.1714 O.2     1  UNL1       -0.2731
     11 C          58.1470   93.3834   -2.1587 C.3     1  UNL1        0.1577
     12 N          61.9259   94.5943   -2.2218 N.am    1  UNL1       -0.1863
     13 C          63.0380   94.8901   -1.2596 C.2     1  UNL1        0.3191
     14 O          62.8167   94.7283    0.2151 O.2     1  UNL1       -0.2512
     15 N          64.3714   95.3477   -1.7722 N.am    1  UNL1       -0.2836
     16 H          64.5166   95.4539   -2.7401 H       1  UNL1        0.1513
     17 C          63.4805   95.2137   -4.2091 C.3     1  UNL1        0.1188
     18 C          63.9447   96.2463   -6.5475 C.2     1  UNL1       -0.0034
     19 C          63.8252   95.0437   -5.6590 C.2     1  UNL1       -0.0071
     20 C          58.8166   93.3556    1.7529 C.3     1  UNL1        0.1217
     21 C          59.8291   92.6293    2.5880 C.ar    1  UNL1        0.0135
     22 C          61.2777   92.6531    2.1995 C.ar    1  UNL1       -0.0012
     23 C          62.2902   91.9268    3.0345 C.ar    1  UNL1       -0.0002
     24 C          61.8541   91.1769    4.2582 C.ar    1  UNL1        0.0016
     25 C          60.4055   91.1531    4.6467 C.ar    1  UNL1        0.0214
     26 C          59.6835   90.5038    5.7900 C.ar    1  UNL1        0.0722
     27 C          58.2248   90.8288    5.6615 C.ar    1  UNL1        0.0805
     28 N          58.0453   91.6789    4.4389 N.ar    1  UNL1       -0.3241
     29 C          56.7461   92.2315    3.9323 C.3     1  UNL1        0.1305
     30 C          59.3930   91.8793    3.8117 C.ar    1  UNL1        0.0577
     31 C          60.3103   89.6750    6.8719 C.2     1  UNL1        0.2510
     32 O          61.2725   90.3035    7.8358 O.2     1  UNL1       -0.2698
     33 N          59.9747   88.2178    6.9899 N.am    1  UNL1       -0.2791
     34 H          59.3432   87.8054    6.3572 H       1  UNL1        0.1552
     35 C          60.6014   87.3890    8.0717 C.ar    1  UNL1        0.0701
     36 C          61.2466   86.0779    7.7332 C.ar    1  UNL1        0.0191
     37 C          61.8733   85.2490    8.8150 C.ar    1  UNL1        0.0356
     38 C          61.8548   85.7313   10.2352 C.ar    1  UNL1        0.1318
     39 N          61.2096   87.0425   10.5736 N.ar    1  UNL1       -0.2279
     40 C          60.5829   87.8713    9.4919 C.ar    1  UNL1        0.1149
     41 N          62.4815   84.9025   11.3170 N.pl3   1  UNL1       -0.2932
     42 C          63.2569   83.6339   11.1184 C.3     1  UNL1        0.0923
     43 C          63.6974   83.1440   12.4659 C.3     1  UNL1        0.0245
     44 C          63.1944   84.1100   13.4975 C.3     1  UNL1        0.0360
     45 C          63.9458   83.0232   14.2075 C.3     1  UNL1        0.0204
     46 C          63.9072   83.3174   15.6779 C.3     1  UNL1        0.0722
     47 N          63.1319   84.5860   15.8766 N.3     1  UNL1       -0.2726
     48 C          62.6913   85.0758   14.5290 C.3     1  UNL1        0.0738
     49 C          62.4429   85.1967   12.7874 C.3     1  UNL1        0.0935
     50 C          62.8471   85.2485   17.1919 C.3     1  UNL1        0.0721
     51 C          62.2746   86.6346   17.2251 C.3     1  UNL1        0.0188
     52 C          57.0350   93.0876   -3.1209 C.3     1  UNL1        0.0556
     53 C          55.8621   94.0173   -3.2203 C.ar    1  UNL1       -0.0198
     54 C          55.1588   94.4732   -1.9764 C.ar    1  UNL1       -0.0011
     55 C          53.9859   95.4030   -2.0758 C.ar    1  UNL1        0.0363
     56 C          53.5164   95.8769   -3.4193 C.ar    1  UNL1        0.1337
     57 O          52.3435   96.8067   -3.5188 O.3     1  UNL1       -0.5055
     58 C          54.2197   95.4211   -4.6633 C.ar    1  UNL1        0.0363
     59 C          55.3926   94.4913   -4.5639 C.ar    1  UNL1       -0.0011
     60 H          51.9042   97.0915   -2.7417 H       1  UNL1        0.2922
     61 C          65.4834   95.6435   -0.8100 C.3     1  UNL1        0.1177
     62 C          65.2133   95.6637    0.6653 C.ar    1  UNL1       -0.0025
     63 C          64.5057   96.8337    1.2822 C.ar    1  UNL1       -0.0026
     64 C          64.2356   96.8539    2.7575 C.ar    1  UNL1       -0.0003
     65 C          64.6730   95.7043    3.6159 C.ar    1  UNL1       -0.0000
     66 C          65.3806   94.5343    2.9990 C.ar    1  UNL1       -0.0003
     67 C          65.6507   94.5140    1.5237 C.ar    1  UNL1       -0.0026
@<TRIPOS>BOND
     1    18    19    2
     2    19    17    1
     3    17     1    1
     4     1     2    1
     5     2     3    1
     6     3     4    2
     7     3     5   am
     8     5     6    1
     9     6     7    1
    10     7     8    1
    11     8    20    1
    12    20    21    1
    13    21    22   ar
    14    22    23   ar
    15    23    24   ar
    16    24    25   ar
    17    25    26   ar
    18    26    31    1
    19    31    32    2
    20    31    33   am
    21    33    35    1
    22    35    36   ar
    23    36    37   ar
    24    37    38   ar
    25    38    41    1
    26    41    42    1
    27    42    43    1
    28    43    44    1
    29    44    45    1
    30    45    46    1
    31    46    47    1
    32    47    50    1
    33    50    51    1
    34    47    48    1
    35    44    49    1
    36    38    39   ar
    37    39    40   ar
    38    26    27   ar
    39    27    28   ar
    40    28    29    1
    41    28    30   ar
    42     8     9   am
    43     9    10    2
    44     9    11    1
    45    11    52    1
    46    52    53    1
    47    53    54   ar
    48    54    55   ar
    49    55    56   ar
    50    56    57    1
    51    56    58   ar
    52    58    59   ar
    53     6    12    1
    54    12    13   am
    55    13    14    2
    56    13    15   am
    57    15    61    1
    58    61    62    1
    59    62    63   ar
    60    63    64   ar
    61    64    65   ar
    62    65    66   ar
    63    66    67   ar
    64    12     1    1
    65    67    62   ar
    66    11     5    1
    67    59    53   ar
    68    30    21   ar
    69    30    25   ar
    70    40    35   ar
    71    49    41    1
    72    48    44    1
    73    33    34    1
    74    57    60    1
    75    15    16    1
@<TRIPOS>MOLECULE
*****
 67 75 0 0 0
SMALL
GASTEIGER

@<TRIPOS>ATOM
      1 N          62.0673   95.1318   -3.6660 N.3     1  UNL1       -0.1862
      2 C          60.9258   95.0166   -4.6322 C.3     1  UNL1        0.1775
      3 C          59.5620   94.6327   -4.1395 C.2     1  UNL1        0.2452
      4 O          58.4205   94.5174   -5.1058 O.2     1  UNL1       -0.2732
      5 N          59.3398   94.3640   -2.6806 N.am    1  UNL1       -0.2541
      6 C          60.4813   94.4793   -1.7144 C.3     1  UNL1        0.1908
      7 C          60.2591   94.2106   -0.2555 C.3     1  UNL1        0.1359
      8 N          58.8953   93.8267    0.2372 N.am    1  UNL1       -0.2705
      9 C          57.7537   93.7114   -0.7291 C.2     1  UNL1        0.2445
     10 O          56.3900   93.3275   -0.2364 O.2     1  UNL1       -0.2731
     11 C          57.9760   93.9801   -2.1879 C.3     1  UNL1        0.1577
     12 N          61.8451   94.8632   -2.2071 N.am    1  UNL1       -0.1863
     13 C          62.9866   94.9785   -1.2408 C.2     1  UNL1        0.3191
     14 O          62.7644   94.7098    0.2181 O.2     1  UNL1       -0.2512
     15 N          64.3504   95.3624   -1.7335 N.am    1  UNL1       -0.2836
     16 H          64.4962   95.5387   -2.6910 H       1  UNL1        0.1513
     17 C          63.4311   95.5158   -4.1587 C.3     1  UNL1        0.1188
     18 C          64.9396   93.5146   -4.8441 C.2     1  UNL1       -0.0034
     19 C          64.1012   94.6991   -5.2236 C.2     1  UNL1       -0.0071
     20 C          58.6731   93.5580    1.6961 C.3     1  UNL1        0.1217
     21 C          59.6722   92.7507    2.4708 C.ar    1  UNL1        0.0135
     22 C          61.1026   92.6974    2.0226 C.ar    1  UNL1       -0.0012
     23 C          62.1017   91.8902    2.7972 C.ar    1  UNL1       -0.0002
     24 C          61.6704   91.1362    4.0201 C.ar    1  UNL1        0.0016
     25 C          60.2399   91.1896    4.4683 C.ar    1  UNL1        0.0214
     26 C          59.5263   90.5554    5.6253 C.ar    1  UNL1        0.0722
     27 C          58.0862   90.9707    5.5657 C.ar    1  UNL1        0.0805
     28 N          57.9098   91.8615    4.3719 N.ar    1  UNL1       -0.3241
     29 C          56.6274   92.5043    3.9333 C.3     1  UNL1        0.1305
     30 C          59.2408   91.9968    3.6937 C.ar    1  UNL1        0.0577
     31 C          60.1444   89.6626    6.6602 C.2     1  UNL1        0.2510
     32 O          60.6307   88.2960    6.2780 O.2     1  UNL1       -0.2698
     33 N          60.2762   90.1364    8.0773 N.am    1  UNL1       -0.2791
     34 H          59.9570   91.0333    8.3282 H       1  UNL1        0.1552
     35 C          60.8942   89.2437    9.1123 C.ar    1  UNL1        0.0701
     36 C          61.9436   89.7836   10.0382 C.ar    1  UNL1        0.0191
     37 C          62.5617   88.8910   11.0732 C.ar    1  UNL1        0.0356
     38 C          62.1304   87.4585   11.1822 C.ar    1  UNL1        0.1318
     39 N          61.0811   86.9186   10.2562 N.ar    1  UNL1       -0.2279
     40 C          60.4630   87.8112    9.2212 C.ar    1  UNL1        0.1149
     41 N          62.7485   86.5658   12.2171 N.pl3   1  UNL1       -0.2932
     42 C          63.7852   86.9687   13.2235 C.3     1  UNL1        0.0923
     43 C          64.1158   85.7655   14.0558 C.3     1  UNL1        0.0245
     44 C          63.2834   84.6187   13.5638 C.3     1  UNL1        0.0360
     45 C          64.1284   84.1241   14.7001 C.3     1  UNL1        0.0204
     46 C          63.8183   82.6716   14.9104 C.3     1  UNL1        0.0722
     47 N          62.7816   82.2686   13.9041 N.3     1  UNL1       -0.2726
     48 C          62.4510   83.4719   13.0718 C.3     1  UNL1        0.0738
     49 C          62.4383   85.1133   12.4275 C.3     1  UNL1        0.0935
     50 C          62.1810   80.9021   13.7560 C.3     1  UNL1        0.0721
     51 C          60.7052   80.7074   13.9411 C.3     1  UNL1        0.0188
     52 C          56.8345   93.8648   -3.1541 C.3     1  UNL1        0.0556
     53 C          56.2440   92.5204   -3.4605 C.ar    1  UNL1       -0.0198
     54 C          55.8774   92.1660   -4.8711 C.ar    1  UNL1       -0.0011
     55 C          55.2869   90.8216   -5.1774 C.ar    1  UNL1        0.0363
     56 C          55.0630   89.8315   -4.0731 C.ar    1  UNL1        0.1337
     57 O          54.4725   88.4871   -4.3794 O.3     1  UNL1       -0.5055
     58 C          55.4296   90.1859   -2.6623 C.ar    1  UNL1        0.0363
     59 C          56.0201   91.5303   -2.3560 C.ar    1  UNL1       -0.0011
     60 H          54.2435   88.2657   -5.2606 H       1  UNL1        0.2922
     61 C          65.4919   95.4776   -0.7673 C.3     1  UNL1        0.1177
     62 C          65.2251   95.5098    0.7084 C.ar    1  UNL1       -0.0025
     63 C          64.9854   94.2313    1.4553 C.ar    1  UNL1       -0.0026
     64 C          64.7186   94.2634    2.9310 C.ar    1  UNL1       -0.0003
     65 C          64.6915   95.5741    3.6599 C.ar    1  UNL1       -0.0000
     66 C          64.9312   96.8527    2.9130 C.ar    1  UNL1       -0.0003
     67 C          65.1980   96.8206    1.4373 C.ar    1  UNL1       -0.0026
@<TRIPOS>BOND
     1    18    19    2
     2    19    17    1
     3    17     1    1
     4     1     2    1
     5     2     3    1
     6     3     4    2
     7     3     5   am
     8     5     6    1
     9     6     7    1
    10     7     8    1
    11     8    20    1
    12    20    21    1
    13    21    22   ar
    14    22    23   ar
    15    23    24   ar
    16    24    25   ar
    17    25    26   ar
    18    26    31    1
    19    31    32    2
    20    31    33   am
    21    33    35    1
    22    35    36   ar
    23    36    37   ar
    24    37    38   ar
    25    38    41    1
    26    41    42    1
    27    42    43    1
    28    43    44    1
    29    44    45    1
    30    45    46    1
    31    46    47    1
    32    47    50    1
    33    50    51    1
    34    47    48    1
    35    44    49    1
    36    38    39   ar
    37    39    40   ar
    38    26    27   ar
    39    27    28   ar
    40    28    29    1
    41    28    30   ar
    42     8     9   am
    43     9    10    2
    44     9    11    1
    45    11    52    1
    46    52    53    1
    47    53    54   ar
    48    54    55   ar
    49    55    56   ar
    50    56    57    1
    51    56    58   ar
    52    58    59   ar
    53     6    12    1
    54    12    13   am
    55    13    14    2
    56    13    15   am
    57    15    61    1
    58    61    62    1
    59    62    63   ar
    60    63    64   ar
    61    64    65   ar
    62    65    66   ar
    63    66    67   ar
    64    12     1    1
    65    67    62   ar
    66    11     5    1
    67    59    53   ar
    68    30    21   ar
    69    30    25   ar
    70    40    35   ar
    71    49    41    1
    72    48    44    1
    73    33    34    1
    74    57    60    1
    75    15    16    1
