@<TRIPOS>MOLECULE
*****
 24 27 0 0 0
SMALL
GASTEIGER

@<TRIPOS>ATOM
      1 C          66.1524   93.4829   11.5066 C.2     1  UNL1        0.1244
      2 C          65.1805   93.0193   10.4624 C.2     1  UNL1        0.0624
      3 C          64.2040   91.9256   10.7794 C.2     1  UNL1        0.1442
      4 F          63.2321   91.4621    9.7351 F       1  UNL1       -0.2040
      5 C          64.1995   91.2955   12.1406 C.2     1  UNL1        0.0493
      6 C          63.3606   90.2057   12.7394 C.2     1  UNL1        0.0980
      7 C          63.8140   89.9957   14.1537 C.2     1  UNL1        0.1050
      8 N          64.9332   90.9558   14.4290 N.2     1  UNL1       -0.2474
      9 C          65.1715   91.7591   13.1848 C.2     1  UNL1        0.0690
     10 C          66.1479   92.8527   12.8679 C.3     1  UNL1        0.1097
     11 C          66.6658   95.8114   10.4750 C.3     1  UNL1        0.2520
     12 O          67.1288   94.5766   11.1897 O.2     1  UNL1       -0.4752
     13 C          62.2612   89.4573   12.0456 C.2     1  UNL1        0.3428
     14 O          60.8529   89.5525   12.5530 O.2     1  UNL1       -0.2448
     15 O          62.5702   88.6137   10.8444 O.3     1  UNL1       -0.4454
     16 C          62.1021   87.1898   10.7874 C.3     1  UNL1        0.2087
     17 C          61.5570   86.6302    9.5069 C.3     1  UNL1        0.0445
     18 C          62.4168   85.7534    8.6454 C.3     1  UNL1        0.0210
     19 C          61.8716   85.1939    7.3649 C.3     1  UNL1        0.0722
     20 N          60.4667   85.5111    6.9459 N.3     1  UNL1       -0.2727
     21 C          59.6070   86.3879    7.8073 C.3     1  UNL1        0.0722
     22 C          60.1521   86.9474    9.0878 C.3     1  UNL1        0.0210
     23 C          60.7215   85.8408    7.6560 C.3     1  UNL1        0.0722
     24 C          61.2143   86.3468    8.8139 C.3     1  UNL1        0.0210
@<TRIPOS>BOND
     1    11    12    1
     2    12     1    1
     3     1     2    2
     4     2     3    1
     5     3     4    1
     6     3     5    2
     7     5     6    1
     8     6    13    1
     9    13    14    2
    10    13    15    1
    11    15    16    1
    12    16    17    1
    13    17    18    1
    14    18    19    1
    15    19    20    1
    16    20    21    1
    17    21    22    1
    18    20    23    1
    19    23    24    1
    20     6     7    2
    21     7     8    1
    22     8     9    2
    23     9    10    1
    24    10     1    1
    25     9     5    1
    26    22    17    1
    27    24    17    1
@<TRIPOS>MOLECULE
*****
 24 27 0 0 0
SMALL
GASTEIGER

@<TRIPOS>ATOM
      1 C          66.0662   92.3825   14.0184 C.2     1  UNL1        0.1244
      2 C          65.4353   91.1877   14.6700 C.2     1  UNL1        0.0624
      3 C          64.4184   90.3760   13.9235 C.2     1  UNL1        0.1442
      4 F          63.7875   89.1812   14.5751 F       1  UNL1       -0.2040
      5 C          64.0325   90.7590   12.5255 C.2     1  UNL1        0.0493
      6 C          63.0673   90.1544   11.5494 C.2     1  UNL1        0.0980
      7 C          63.1017   90.9754   10.2945 C.2     1  UNL1        0.1050
      8 N          64.0881   92.0875   10.4951 N.2     1  UNL1       -0.2474
      9 C          64.6634   91.9537   11.8740 C.2     1  UNL1        0.0690
     10 C          65.6802   92.7654   12.6203 C.3     1  UNL1        0.1097
     11 C          67.7461   92.6274   15.9850 C.3     1  UNL1        0.2520
     12 O          67.0830   93.1942   14.7647 O.2     1  UNL1       -0.4752
     13 C          62.2170   88.9416   11.7865 C.2     1  UNL1        0.3428
     14 O          60.7287   89.0816   11.9098 O.2     1  UNL1       -0.2448
     15 O          62.8551   87.5889   11.9004 O.3     1  UNL1       -0.4454
     16 C          62.0938   86.3634   11.4895 C.3     1  UNL1        0.2087
     17 C          61.8882   86.0609   10.0348 C.3     1  UNL1        0.0445
     18 C          62.9398   85.3153    9.2678 C.3     1  UNL1        0.0210
     19 C          62.7340   85.0128    7.8131 C.3     1  UNL1        0.0722
     20 N          61.4768   85.4559    7.1254 N.3     1  UNL1       -0.2727
     21 C          60.4252   86.2015    7.8924 C.3     1  UNL1        0.0722
     22 C          60.6309   86.5040    9.3471 C.3     1  UNL1        0.0210
     23 C          61.5447   85.6447    7.9239 C.3     1  UNL1        0.0722
     24 C          61.7306   85.9183    9.2393 C.3     1  UNL1        0.0210
@<TRIPOS>BOND
     1    11    12    1
     2    12     1    1
     3     1     2    2
     4     2     3    1
     5     3     4    1
     6     3     5    2
     7     5     6    1
     8     6    13    1
     9    13    14    2
    10    13    15    1
    11    15    16    1
    12    16    17    1
    13    17    18    1
    14    18    19    1
    15    19    20    1
    16    20    21    1
    17    21    22    1
    18    20    23    1
    19    23    24    1
    20     6     7    2
    21     7     8    1
    22     8     9    2
    23     9    10    1
    24    10     1    1
    25     9     5    1
    26    22    17    1
    27    24    17    1
@<TRIPOS>MOLECULE
*****
 24 27 0 0 0
SMALL
GASTEIGER

@<TRIPOS>ATOM
      1 C          66.3817   92.9857   11.6372 C.2     1  UNL1        0.1244
      2 C          66.7101   92.7230   13.0770 C.2     1  UNL1        0.0624
      3 C          65.8185   91.8419   13.9010 C.2     1  UNL1        0.1442
      4 F          66.1468   91.5792   15.3408 F       1  UNL1       -0.2040
      5 C          64.5985   91.2236   13.2850 C.2     1  UNL1        0.0493
      6 C          63.5405   90.3191   13.8442 C.2     1  UNL1        0.0980
      7 C          62.5583   90.0228   12.7499 C.2     1  UNL1        0.1050
      8 N          63.0092   90.7442   11.5145 N.2     1  UNL1       -0.2474
      9 C          64.2702   91.4863   11.8452 C.2     1  UNL1        0.0690
     10 C          65.1617   92.3673   11.0213 C.3     1  UNL1        0.1097
     11 C          67.7348   93.4115    9.4606 C.3     1  UNL1        0.2520
     12 O          67.2733   93.8667   10.8133 O.2     1  UNL1       -0.4752
     13 C          63.4762   89.8018   15.2507 C.2     1  UNL1        0.3428
     14 O          63.3297   90.7593   16.3960 O.2     1  UNL1       -0.2448
     15 O          63.5582   88.3270   15.5118 O.3     1  UNL1       -0.4454
     16 C          64.4670   87.4680   14.6834 C.3     1  UNL1        0.2087
     17 C          64.0783   86.0548   14.3645 C.3     1  UNL1        0.0445
     18 C          63.4000   85.7386   13.0645 C.3     1  UNL1        0.0210
     19 C          63.0113   84.3254   12.7456 C.3     1  UNL1        0.0722
     20 N          63.3010   83.2283   13.7267 N.3     1  UNL1       -0.2727
     21 C          63.9793   83.5445   15.0267 C.3     1  UNL1        0.0722
     22 C          64.3680   84.9577   15.3456 C.3     1  UNL1        0.0210
     23 C          63.5327   83.9874   13.9457 C.3     1  UNL1        0.0722
     24 C          63.8842   85.2653   14.2341 C.3     1  UNL1        0.0210
@<TRIPOS>BOND
     1    11    12    1
     2    12     1    1
     3     1     2    2
     4     2     3    1
     5     3     4    1
     6     3     5    2
     7     5     6    1
     8     6    13    1
     9    13    14    2
    10    13    15    1
    11    15    16    1
    12    16    17    1
    13    17    18    1
    14    18    19    1
    15    19    20    1
    16    20    21    1
    17    21    22    1
    18    20    23    1
    19    23    24    1
    20     6     7    2
    21     7     8    1
    22     8     9    2
    23     9    10    1
    24    10     1    1
    25     9     5    1
    26    22    17    1
    27    24    17    1
@<TRIPOS>MOLECULE
*****
 24 27 0 0 0
SMALL
GASTEIGER

@<TRIPOS>ATOM
      1 C          65.8285   92.0733   13.8131 C.2     1  UNL1        0.1244
      2 C          65.2724   90.8339   14.4494 C.2     1  UNL1        0.0624
      3 C          64.2460   90.0146   13.7246 C.2     1  UNL1        0.1442
      4 F          63.6900   88.7752   14.3608 F       1  UNL1       -0.2040
      5 C          63.7757   90.4346   12.3636 C.2     1  UNL1        0.0493
      6 C          62.7821   89.8324   11.4149 C.2     1  UNL1        0.0980
      7 C          62.7240   90.6995   10.1923 C.2     1  UNL1        0.1050
      8 N          63.6817   91.8377   10.3854 N.2     1  UNL1       -0.2474
      9 C          64.3318   91.6740   11.7273 C.2     1  UNL1        0.0690
     10 C          65.3581   92.4933   12.4521 C.3     1  UNL1        0.1097
     11 C          66.9551   92.8177   16.0326 C.3     1  UNL1        0.2520
     12 O          66.8548   92.8926   14.5379 O.2     1  UNL1       -0.4752
     13 C          61.9862   88.5825   11.6479 C.2     1  UNL1        0.3428
     14 O          60.4872   88.6334   11.6294 O.2     1  UNL1       -0.2448
     15 O          62.6894   87.2816   11.8993 O.3     1  UNL1       -0.4454
     16 C          62.0554   85.9912   11.4714 C.3     1  UNL1        0.2087
     17 C          62.8794   84.7403   11.3936 C.3     1  UNL1        0.0445
     18 C          63.3564   84.2379   10.0631 C.3     1  UNL1        0.0210
     19 C          64.1804   82.9869    9.9854 C.3     1  UNL1        0.0722
     20 N          64.5275   82.2384   11.2381 N.3     1  UNL1       -0.2727
     21 C          64.0505   82.7408   12.5685 C.3     1  UNL1        0.0722
     22 C          63.2265   83.9918   12.6463 C.3     1  UNL1        0.0210
     23 C          64.0735   82.9190   11.3308 C.3     1  UNL1        0.0722
     24 C          63.3284   84.0501   11.4012 C.3     1  UNL1        0.0210
@<TRIPOS>BOND
     1    11    12    1
     2    12     1    1
     3     1     2    2
     4     2     3    1
     5     3     4    1
     6     3     5    2
     7     5     6    1
     8     6    13    1
     9    13    14    2
    10    13    15    1
    11    15    16    1
    12    16    17    1
    13    17    18    1
    14    18    19    1
    15    19    20    1
    16    20    21    1
    17    21    22    1
    18    20    23    1
    19    23    24    1
    20     6     7    2
    21     7     8    1
    22     8     9    2
    23     9    10    1
    24    10     1    1
    25     9     5    1
    26    22    17    1
    27    24    17    1
@<TRIPOS>MOLECULE
*****
 24 27 0 0 0
SMALL
GASTEIGER

@<TRIPOS>ATOM
      1 C          60.9800   87.2511    9.5642 C.2     1  UNL1        0.1244
      2 C          61.0528   88.7443    9.4425 C.2     1  UNL1        0.0624
      3 C          61.8501   89.5396   10.4335 C.2     1  UNL1        0.1442
      4 F          61.9229   91.0329   10.3118 F       1  UNL1       -0.2040
      5 C          62.5745   88.8416   11.5461 C.2     1  UNL1        0.0493
      6 C          63.4325   89.3564   12.6636 C.2     1  UNL1        0.0980
      7 C          63.8900   88.1814   13.4760 C.2     1  UNL1        0.1050
      8 N          63.3147   86.9403   12.8605 N.2     1  UNL1       -0.2474
      9 C          62.5017   87.3483   11.6678 C.2     1  UNL1        0.0690
     10 C          61.7045   86.5530   10.6769 C.3     1  UNL1        0.1097
     11 C          59.0902   87.1169    7.7865 C.3     1  UNL1        0.2520
     12 O          60.1828   86.4558    8.5733 O.2     1  UNL1       -0.4752
     13 C          63.7732   90.7940   12.9231 C.2     1  UNL1        0.3428
     14 O          63.4719   91.4069   14.2586 O.2     1  UNL1       -0.2448
     15 O          64.4152   91.6187   11.8472 O.3     1  UNL1       -0.4454
     16 C          65.6847   92.3655   12.1314 C.3     1  UNL1        0.2087
     17 C          66.4922   92.9298   11.0003 C.3     1  UNL1        0.0445
     18 C          66.1729   94.2908   10.4566 C.3     1  UNL1        0.0210
     19 C          66.9804   94.8550    9.3255 C.3     1  UNL1        0.0722
     20 N          68.1073   94.0581    8.7379 N.3     1  UNL1       -0.2727
     21 C          68.4266   92.6971    9.2816 C.3     1  UNL1        0.0722
     22 C          67.6190   92.1329   10.4127 C.3     1  UNL1        0.0210
     23 C          67.6929   93.7072    9.3568 C.3     1  UNL1        0.0722
     24 C          66.9628   93.1969   10.3796 C.3     1  UNL1        0.0210
@<TRIPOS>BOND
     1    11    12    1
     2    12     1    1
     3     1     2    2
     4     2     3    1
     5     3     4    1
     6     3     5    2
     7     5     6    1
     8     6    13    1
     9    13    14    2
    10    13    15    1
    11    15    16    1
    12    16    17    1
    13    17    18    1
    14    18    19    1
    15    19    20    1
    16    20    21    1
    17    21    22    1
    18    20    23    1
    19    23    24    1
    20     6     7    2
    21     7     8    1
    22     8     9    2
    23     9    10    1
    24    10     1    1
    25     9     5    1
    26    22    17    1
    27    24    17    1
@<TRIPOS>MOLECULE
*****
 24 27 0 0 0
SMALL
GASTEIGER

@<TRIPOS>ATOM
      1 C          61.9823   88.5063   10.2448 C.2     1  UNL1        0.1244
      2 C          62.3119   89.9501   10.4825 C.2     1  UNL1        0.0624
      3 C          63.0640   90.3545   11.7158 C.2     1  UNL1        0.1442
      4 F          63.3936   91.7984   11.9536 F       1  UNL1       -0.2040
      5 C          63.4863   89.3150   12.7113 C.2     1  UNL1        0.0493
      6 C          64.2330   89.4125   14.0086 C.2     1  UNL1        0.0980
      7 C          64.3648   88.0288   14.5727 C.2     1  UNL1        0.1050
      8 N          63.6996   87.0763   13.6240 N.2     1  UNL1       -0.2474
      9 C          63.1566   87.8712   12.4736 C.2     1  UNL1        0.0690
     10 C          62.4046   87.4667   11.2403 C.3     1  UNL1        0.1097
     11 C          60.0494   88.9065    8.5556 C.3     1  UNL1        0.2520
     12 O          61.2303   88.1018    9.0115 O.2     1  UNL1       -0.4752
     13 C          64.7560   90.6724   14.6324 C.2     1  UNL1        0.3428
     14 O          63.8189   91.6010   15.3462 O.2     1  UNL1       -0.2448
     15 O          66.2161   91.0038   14.5422 O.3     1  UNL1       -0.4454
     16 C          66.6493   92.3698   14.0990 C.3     1  UNL1        0.2087
     17 C          66.7280   92.6940   12.6366 C.3     1  UNL1        0.0445
     18 C          65.8921   93.8021   12.0680 C.3     1  UNL1        0.0210
     19 C          65.9708   94.1262   10.6056 C.3     1  UNL1        0.0722
     20 N          66.8854   93.3422    9.7118 N.3     1  UNL1       -0.2727
     21 C          67.7213   92.2341   10.2804 C.3     1  UNL1        0.0722
     22 C          67.6426   91.9100   11.7428 C.3     1  UNL1        0.0210
     23 C          66.8762   93.1279   10.5067 C.3     1  UNL1        0.0722
     24 C          66.8051   92.8348   11.8290 C.3     1  UNL1        0.0210
@<TRIPOS>BOND
     1    11    12    1
     2    12     1    1
     3     1     2    2
     4     2     3    1
     5     3     4    1
     6     3     5    2
     7     5     6    1
     8     6    13    1
     9    13    14    2
    10    13    15    1
    11    15    16    1
    12    16    17    1
    13    17    18    1
    14    18    19    1
    15    19    20    1
    16    20    21    1
    17    21    22    1
    18    20    23    1
    19    23    24    1
    20     6     7    2
    21     7     8    1
    22     8     9    2
    23     9    10    1
    24    10     1    1
    25     9     5    1
    26    22    17    1
    27    24    17    1
@<TRIPOS>MOLECULE
*****
 24 27 0 0 0
SMALL
GASTEIGER

@<TRIPOS>ATOM
      1 C          64.2120   90.8541   13.3817 C.2     1  UNL1        0.1244
      2 C          64.3652   89.4885   13.9830 C.2     1  UNL1        0.0624
      3 C          63.7738   88.2948   13.2935 C.2     1  UNL1        0.1442
      4 F          63.9270   86.9291   13.8948 F       1  UNL1       -0.2040
      5 C          63.0293   88.4667   12.0027 C.2     1  UNL1        0.0493
      6 C          62.3431   87.4837   11.1012 C.2     1  UNL1        0.0980
      7 C          61.7658   88.2417    9.9427 C.2     1  UNL1        0.1050
      8 N          62.0952   89.6933   10.1283 N.2     1  UNL1       -0.2474
      9 C          62.8761   89.8323   11.4014 C.2     1  UNL1        0.0690
     10 C          63.4674   91.0260   12.0908 C.3     1  UNL1        0.1097
     11 C          66.1563   91.9503   14.7112 C.3     1  UNL1        0.2520
     12 O          64.8033   92.0478   14.0711 O.2     1  UNL1       -0.4752
     13 C          62.2505   86.0026   11.3198 C.2     1  UNL1        0.3428
     14 O          61.7128   85.4676   12.6139 O.2     1  UNL1       -0.2448
     15 O          62.6955   85.0564   10.2443 O.3     1  UNL1       -0.4454
     16 C          63.7837   84.0623   10.5229 C.3     1  UNL1        0.2087
     17 C          63.6586   83.1185   11.6820 C.3     1  UNL1        0.0445
     18 C          62.9494   81.8081   11.5091 C.3     1  UNL1        0.0210
     19 C          62.8243   80.8644   12.6682 C.3     1  UNL1        0.0722
     20 N          63.4084   81.2310   14.0003 N.3     1  UNL1       -0.2727
     21 C          64.1175   82.5414   14.1732 C.3     1  UNL1        0.0722
     22 C          64.2426   83.4852   13.0141 C.3     1  UNL1        0.0210
     23 C          63.5020   81.7806   13.3944 C.3     1  UNL1        0.0722
     24 C          63.6152   82.6340   12.3464 C.3     1  UNL1        0.0210
@<TRIPOS>BOND
     1    11    12    1
     2    12     1    1
     3     1     2    2
     4     2     3    1
     5     3     4    1
     6     3     5    2
     7     5     6    1
     8     6    13    1
     9    13    14    2
    10    13    15    1
    11    15    16    1
    12    16    17    1
    13    17    18    1
    14    18    19    1
    15    19    20    1
    16    20    21    1
    17    21    22    1
    18    20    23    1
    19    23    24    1
    20     6     7    2
    21     7     8    1
    22     8     9    2
    23     9    10    1
    24    10     1    1
    25     9     5    1
    26    22    17    1
    27    24    17    1
@<TRIPOS>MOLECULE
*****
 24 27 0 0 0
SMALL
GASTEIGER

@<TRIPOS>ATOM
      1 C          62.8904   80.6331   11.7978 C.2     1  UNL1        0.1244
      2 C          63.2100   81.8235   10.9428 C.2     1  UNL1        0.0624
      3 C          63.3391   83.1817   11.5662 C.2     1  UNL1        0.1442
      4 F          63.6587   84.3721   10.7113 F       1  UNL1       -0.2040
      5 C          63.1485   83.3496   13.0445 C.2     1  UNL1        0.0493
      6 C          63.2135   84.5554   13.9344 C.2     1  UNL1        0.0980
      7 C          62.9341   84.1103   15.3393 C.2     1  UNL1        0.1050
      8 N          62.6964   82.6294   15.3177 N.2     1  UNL1       -0.2474
      9 C          62.8290   82.1592   13.8995 C.2     1  UNL1        0.0690
     10 C          62.6999   80.8010   13.2762 C.3     1  UNL1        0.1097
     11 C          62.7999   79.1279    9.6822 C.3     1  UNL1        0.2520
     12 O          62.7614   79.2749   11.1744 O.2     1  UNL1       -0.4752
     13 C          63.5065   85.9597   13.4962 C.2     1  UNL1        0.3428
     14 O          62.7938   86.5395   12.3105 O.2     1  UNL1       -0.2448
     15 O          64.5121   86.7842   14.2438 O.3     1  UNL1       -0.4454
     16 C          64.0908   88.0627   14.9056 C.3     1  UNL1        0.2087
     17 C          64.2689   89.3704   14.1929 C.3     1  UNL1        0.0445
     18 C          65.3182   90.3386   14.6529 C.3     1  UNL1        0.0210
     19 C          65.4962   91.6463   13.9400 C.3     1  UNL1        0.0722
     20 N          64.6249   91.9858   12.7671 N.3     1  UNL1       -0.2727
     21 C          63.5756   91.0177   12.3071 C.3     1  UNL1        0.0722
     22 C          63.3976   89.7099   13.0200 C.3     1  UNL1        0.0210
     23 C          64.4902   91.2572   13.1260 C.3     1  UNL1        0.0722
     24 C          64.3291   90.0747   13.7705 C.3     1  UNL1        0.0210
@<TRIPOS>BOND
     1    11    12    1
     2    12     1    1
     3     1     2    2
     4     2     3    1
     5     3     4    1
     6     3     5    2
     7     5     6    1
     8     6    13    1
     9    13    14    2
    10    13    15    1
    11    15    16    1
    12    16    17    1
    13    17    18    1
    14    18    19    1
    15    19    20    1
    16    20    21    1
    17    21    22    1
    18    20    23    1
    19    23    24    1
    20     6     7    2
    21     7     8    1
    22     8     9    2
    23     9    10    1
    24    10     1    1
    25     9     5    1
    26    22    17    1
    27    24    17    1
@<TRIPOS>MOLECULE
*****
 24 27 0 0 0
SMALL
GASTEIGER

@<TRIPOS>ATOM
      1 C          62.7928   85.6192   12.2070 C.2     1  UNL1        0.1244
      2 C          63.6220   86.2073   13.3100 C.2     1  UNL1        0.0624
      3 C          63.8141   87.6926   13.3936 C.2     1  UNL1        0.1442
      4 F          64.6433   88.2807   14.4966 F       1  UNL1       -0.2040
      5 C          63.1769   88.5898   12.3743 C.2     1  UNL1        0.0493
      6 C          63.1888   90.0798   12.2013 C.2     1  UNL1        0.0980
      7 C          62.3669   90.4126   10.9915 C.2     1  UNL1        0.1050
      8 N          61.8471   89.1283   10.4167 N.2     1  UNL1       -0.2474
      9 C          62.3477   88.0018   11.2713 C.2     1  UNL1        0.0690
     10 C          62.1556   86.5165   11.1876 C.3     1  UNL1        0.1097
     11 C          63.4300   83.2212   12.9771 C.3     1  UNL1        0.2520
     12 O          62.6007   84.1339   12.1233 O.2     1  UNL1       -0.4752
     13 C          63.8980   91.0641   13.0834 C.2     1  UNL1        0.3428
     14 O          63.5016   91.2023   14.5234 O.2     1  UNL1       -0.2448
     15 O          65.0037   91.9103   12.5255 O.3     1  UNL1       -0.4454
     16 C          64.9862   92.3096   11.0796 C.3     1  UNL1        0.2087
     17 C          66.1898   92.9624   10.4672 C.3     1  UNL1        0.0445
     18 C          66.1844   94.4368   10.1913 C.3     1  UNL1        0.0210
     19 C          67.3881   95.0896    9.5789 C.3     1  UNL1        0.0722
     20 N          68.5971   94.2679    9.2423 N.3     1  UNL1       -0.2727
     21 C          68.6024   92.7935    9.5181 C.3     1  UNL1        0.0722
     22 C          67.3987   92.1408   10.1306 C.3     1  UNL1        0.0210
     23 C          67.9612   93.8658    9.5766 C.3     1  UNL1        0.0722
     24 C          66.8729   93.2754   10.1304 C.3     1  UNL1        0.0210
@<TRIPOS>BOND
     1    11    12    1
     2    12     1    1
     3     1     2    2
     4     2     3    1
     5     3     4    1
     6     3     5    2
     7     5     6    1
     8     6    13    1
     9    13    14    2
    10    13    15    1
    11    15    16    1
    12    16    17    1
    13    17    18    1
    14    18    19    1
    15    19    20    1
    16    20    21    1
    17    21    22    1
    18    20    23    1
    19    23    24    1
    20     6     7    2
    21     7     8    1
    22     8     9    2
    23     9    10    1
    24    10     1    1
    25     9     5    1
    26    22    17    1
    27    24    17    1
