@<TRIPOS>MOLECULE
*****
 36 39 0 0 0
SMALL
GASTEIGER

@<TRIPOS>ATOM
      1 N          63.5841   90.6580   11.9342 N.am    1  UNL1       -0.2438
      2 C          64.2692   90.5257   13.2620 C.3     1  UNL1        0.1009
      3 C          65.4710   91.3678   13.5732 C.3     1  UNL1        0.0662
      4 C          65.9876   92.3421   12.5565 C.3     1  UNL1        0.1621
      5 O          65.3025   92.4744   11.2286 O.3     1  UNL1       -0.4374
      6 C          64.1008   91.6323   10.9175 C.2     1  UNL1        0.4051
      7 O          63.4157   91.7646    9.5896 O.2     1  UNL1       -0.2262
      8 C          66.9707   92.5764   13.6649 C.ar    1  UNL1        0.0413
      9 C          66.5758   93.3977   14.8564 C.ar    1  UNL1        0.0013
     10 C          67.5590   93.6321   15.9648 C.ar    1  UNL1       -0.0001
     11 C          68.9369   93.0452   15.8817 C.ar    1  UNL1        0.0023
     12 C          69.3318   92.2239   14.6902 C.ar    1  UNL1        0.0294
     13 C          68.3486   91.9895   13.5818 C.ar    1  UNL1        0.1393
     14 F          68.7434   91.1683   12.3903 F       1  UNL1       -0.2044
     15 C          61.1278   90.4594   11.1114 C.3     1  UNL1        0.0265
     16 C          62.3824   89.8159   11.6231 C.3     1  UNL1        0.1011
     17 C          62.4353   88.3303   11.8238 C.ar    1  UNL1       -0.0042
     18 C          63.3645   87.7440   12.8450 C.ar    1  UNL1       -0.0027
     19 C          63.4173   86.2585   13.0456 C.ar    1  UNL1       -0.0003
     20 C          62.5410   85.3592   12.2250 C.ar    1  UNL1        0.0002
     21 C          61.6118   85.9455   11.2038 C.ar    1  UNL1       -0.0003
     22 C          61.5589   87.4310   11.0032 C.ar    1  UNL1       -0.0027
     23 C          62.5938   83.8736   12.4256 C.ar    1  UNL1        0.0062
     24 C          62.3971   83.2943   13.7952 C.ar    1  UNL1        0.0189
     25 C          62.4500   81.8086   13.9958 C.ar    1  UNL1        0.0784
     26 N          62.6996   80.9024   12.8269 N.ar    1  UNL1       -0.2922
     27 C          62.7525   79.4168   13.0275 C.3     1  UNL1        0.1336
     28 C          62.8963   81.4818   11.4573 C.ar    1  UNL1        0.2610
     29 O          63.1459   80.5755   10.2884 O.2     1  UNL1       -0.2670
     30 C          62.8434   82.9673   11.2567 C.ar    1  UNL1        0.0608
     31 C          66.8457   93.3978   11.9247 C.3     1  UNL1        0.0715
     32 C          66.5798   93.8360   10.5150 C.3     1  UNL1        0.0922
     33 C          67.4139   92.6987   10.0041 C.3     1  UNL1        0.0294
     34 C          65.7457   94.9732   11.0258 C.3     1  UNL1        0.0294
     35 O          66.3139   94.2741    9.1053 O.3     1  UNL1       -0.3866
     36 H          66.7652   93.6751    8.4900 H       1  UNL1        0.2102
@<TRIPOS>BOND
     1    16    15    1
     2    16    17    1
     3    17    18   ar
     4    18    19   ar
     5    19    20   ar
     6    20    23    1
     7    23    24   ar
     8    24    25   ar
     9    25    26   ar
    10    26    27    1
    11    26    28   ar
    12    28    29    2
    13    28    30   ar
    14    20    21   ar
    15    21    22   ar
    16    16     1    1
    17     1     2    1
    18     2     3    1
    19     3     4    1
    20     4    31    1
    21    31    32    1
    22    32    33    1
    23    32    34    1
    24    32    35    1
    25     4     8    1
    26     8     9   ar
    27     9    10   ar
    28    10    11   ar
    29    11    12   ar
    30    12    13   ar
    31    13    14    1
    32     4     5    1
    33     5     6    1
    34     6     7    2
    35    22    17   ar
    36     6     1   am
    37    30    23   ar
    38    13     8   ar
    39    35    36    1
@<TRIPOS>MOLECULE
*****
 36 39 0 0 0
SMALL
GASTEIGER

@<TRIPOS>ATOM
      1 N          63.0844   90.9798   11.6366 N.am    1  UNL1       -0.2438
      2 C          63.5604   91.6724   10.3942 C.3     1  UNL1        0.1009
      3 C          64.7569   92.5753   10.4505 C.3     1  UNL1        0.0662
      4 C          65.4774   92.7856   11.7492 C.3     1  UNL1        0.1621
      5 O          65.0014   92.0929   12.9917 O.3     1  UNL1       -0.4374
      6 C          63.8049   91.1900   12.9354 C.2     1  UNL1        0.4051
      7 O          63.3289   90.4974   14.1778 O.2     1  UNL1       -0.2262
      8 C          66.3032   93.6563   10.8492 C.ar    1  UNL1        0.0413
      9 C          66.1374   95.1466   10.8890 C.ar    1  UNL1        0.0013
     10 C          66.9632   96.0173    9.9890 C.ar    1  UNL1       -0.0001
     11 C          67.9548   95.3977    9.0494 C.ar    1  UNL1        0.0023
     12 C          68.1207   93.9074    9.0097 C.ar    1  UNL1        0.0294
     13 C          67.2948   93.0367    9.9097 C.ar    1  UNL1        0.1393
     14 F          67.4606   91.5465    9.8700 F       1  UNL1       -0.2044
     15 C          60.5142   90.6605   11.4315 C.3     1  UNL1        0.0265
     16 C          61.8879   90.0768   11.5804 C.3     1  UNL1        0.1011
     17 C          62.0652   88.5902   11.6729 C.ar    1  UNL1       -0.0042
     18 C          63.1595   88.0169   12.5238 C.ar    1  UNL1       -0.0027
     19 C          63.3367   86.5303   12.6163 C.ar    1  UNL1       -0.0003
     20 C          62.4197   85.6170   11.8580 C.ar    1  UNL1        0.0002
     21 C          61.3255   86.1903   11.0072 C.ar    1  UNL1       -0.0003
     22 C          61.1483   87.6769   10.9146 C.ar    1  UNL1       -0.0027
     23 C          62.5970   84.1304   11.9506 C.ar    1  UNL1        0.0062
     24 C          63.0468   83.3524   10.7496 C.ar    1  UNL1        0.0189
     25 C          63.2241   81.8658   10.8422 C.ar    1  UNL1        0.0784
     26 N          62.9516   81.1571   12.1358 N.ar    1  UNL1       -0.2922
     27 C          63.1289   79.6706   12.2284 C.3     1  UNL1        0.1336
     28 C          62.5019   81.9351   13.3369 C.ar    1  UNL1        0.2610
     29 O          62.2294   81.2265   14.6306 O.2     1  UNL1       -0.2670
     30 C          62.3246   83.4217   13.2443 C.ar    1  UNL1        0.0608
     31 C          66.4847   93.2983   12.7354 C.3     1  UNL1        0.0715
     32 C          66.9701   92.4099   13.8422 C.3     1  UNL1        0.0922
     33 C          66.1443   93.1845   14.8262 C.3     1  UNL1        0.0294
     34 C          67.7958   91.6353   12.8584 C.3     1  UNL1        0.0294
     35 O          67.4554   91.5216   14.9491 O.3     1  UNL1       -0.3866
     36 H          67.0566   91.8024   15.7875 H       1  UNL1        0.2102
@<TRIPOS>BOND
     1    16    15    1
     2    16    17    1
     3    17    18   ar
     4    18    19   ar
     5    19    20   ar
     6    20    23    1
     7    23    24   ar
     8    24    25   ar
     9    25    26   ar
    10    26    27    1
    11    26    28   ar
    12    28    29    2
    13    28    30   ar
    14    20    21   ar
    15    21    22   ar
    16    16     1    1
    17     1     2    1
    18     2     3    1
    19     3     4    1
    20     4    31    1
    21    31    32    1
    22    32    33    1
    23    32    34    1
    24    32    35    1
    25     4     8    1
    26     8     9   ar
    27     9    10   ar
    28    10    11   ar
    29    11    12   ar
    30    12    13   ar
    31    13    14    1
    32     4     5    1
    33     5     6    1
    34     6     7    2
    35    22    17   ar
    36     6     1   am
    37    30    23   ar
    38    13     8   ar
    39    35    36    1
@<TRIPOS>MOLECULE
*****
 36 39 0 0 0
SMALL
GASTEIGER

@<TRIPOS>ATOM
      1 N          63.5127   90.6793   12.0362 N.am    1  UNL1       -0.2438
      2 C          64.1607   90.5919   13.3862 C.3     1  UNL1        0.1009
      3 C          65.3759   91.4173   13.6897 C.3     1  UNL1        0.0662
      4 C          65.9431   92.3300   12.6432 C.3     1  UNL1        0.1621
      5 O          65.2951   92.4174   11.2932 O.3     1  UNL1       -0.4374
      6 C          64.0799   91.5921   10.9897 C.2     1  UNL1        0.4051
      7 O          63.4319   91.6795    9.6397 O.2     1  UNL1       -0.2262
      8 C          66.9040   92.5911   13.7651 C.ar    1  UNL1        0.0413
      9 C          67.7744   91.4833   14.2802 C.ar    1  UNL1        0.0013
     10 C          68.7353   91.7444   15.4020 C.ar    1  UNL1       -0.0001
     11 C          68.8257   93.1132   16.0087 C.ar    1  UNL1        0.0023
     12 C          67.9554   94.2210   15.4937 C.ar    1  UNL1        0.0294
     13 C          66.9945   93.9599   14.3718 C.ar    1  UNL1        0.1393
     14 F          66.1241   95.0676   13.8567 F       1  UNL1       -0.2044
     15 C          61.0076   90.5253   11.3649 C.3     1  UNL1        0.0265
     16 C          62.2975   89.8539   11.7328 C.3     1  UNL1        0.1011
     17 C          62.3723   88.3571   11.7972 C.ar    1  UNL1       -0.0042
     18 C          61.5069   87.5236   10.8992 C.ar    1  UNL1       -0.0027
     19 C          61.5817   86.0269   10.9636 C.ar    1  UNL1       -0.0003
     20 C          62.5219   85.3637   11.9261 C.ar    1  UNL1        0.0002
     21 C          63.3872   86.1972   12.8240 C.ar    1  UNL1       -0.0003
     22 C          63.3124   87.6939   12.7596 C.ar    1  UNL1       -0.0027
     23 C          62.5966   83.8669   11.9905 C.ar    1  UNL1        0.0062
     24 C          63.2263   83.0984   10.8668 C.ar    1  UNL1        0.0189
     25 C          63.3010   81.6016   10.9312 C.ar    1  UNL1        0.0784
     26 N          62.7461   80.8734   12.1194 N.ar    1  UNL1       -0.2922
     27 C          62.8208   79.3767   12.1838 C.3     1  UNL1        0.1336
     28 C          62.1164   81.6420   13.2432 C.ar    1  UNL1        0.2610
     29 O          61.5615   80.9138   14.4314 O.2     1  UNL1       -0.2670
     30 C          62.0417   83.1387   13.1787 C.ar    1  UNL1        0.0608
     31 C          66.8440   93.3335   11.9863 C.3     1  UNL1        0.0715
     32 C          66.7116   93.6126   10.5185 C.3     1  UNL1        0.0922
     33 C          65.8134   94.7754   10.8207 C.3     1  UNL1        0.0294
     34 C          67.6098   92.4499   10.2164 C.3     1  UNL1        0.0294
     35 O          66.5792   93.8918    9.0507 O.3     1  UNL1       -0.3866
     36 H          66.0030   94.6609    8.9186 H       1  UNL1        0.2102
@<TRIPOS>BOND
     1    16    15    1
     2    16    17    1
     3    17    18   ar
     4    18    19   ar
     5    19    20   ar
     6    20    23    1
     7    23    24   ar
     8    24    25   ar
     9    25    26   ar
    10    26    27    1
    11    26    28   ar
    12    28    29    2
    13    28    30   ar
    14    20    21   ar
    15    21    22   ar
    16    16     1    1
    17     1     2    1
    18     2     3    1
    19     3     4    1
    20     4    31    1
    21    31    32    1
    22    32    33    1
    23    32    34    1
    24    32    35    1
    25     4     8    1
    26     8     9   ar
    27     9    10   ar
    28    10    11   ar
    29    11    12   ar
    30    12    13   ar
    31    13    14    1
    32     4     5    1
    33     5     6    1
    34     6     7    2
    35    22    17   ar
    36     6     1   am
    37    30    23   ar
    38    13     8   ar
    39    35    36    1
@<TRIPOS>MOLECULE
*****
 36 39 0 0 0
SMALL
GASTEIGER

@<TRIPOS>ATOM
      1 N          63.6705   87.9303   13.8897 N.am    1  UNL1       -0.2438
      2 C          64.1527   86.6915   14.5845 C.3     1  UNL1        0.1009
      3 C          63.8549   85.3413   14.0031 C.3     1  UNL1        0.0662
      4 C          63.0747   85.2298   12.7268 C.3     1  UNL1        0.1621
      5 O          62.5924   86.4686   12.0319 O.3     1  UNL1       -0.4374
      6 C          62.8903   87.8188   12.6133 C.2     1  UNL1        0.4051
      7 O          62.4081   89.0576   11.9184 O.2     1  UNL1       -0.2262
      8 C          63.3151   83.7770   13.0130 C.ar    1  UNL1        0.0413
      9 C          64.3401   83.0169   12.2246 C.ar    1  UNL1        0.0013
     10 C          64.5804   81.5642   12.5107 C.ar    1  UNL1       -0.0001
     11 C          63.7957   80.8716   13.5852 C.ar    1  UNL1        0.0023
     12 C          62.7706   81.6317   14.3736 C.ar    1  UNL1        0.0294
     13 C          62.5303   83.0845   14.0875 C.ar    1  UNL1        0.1393
     14 F          61.5054   83.8446   14.8758 F       1  UNL1       -0.2044
     15 C          63.6963   89.5492   15.9215 C.3     1  UNL1        0.0265
     16 C          63.9684   89.2806   14.4711 C.3     1  UNL1        0.1011
     17 C          64.5383   90.3622   13.6020 C.ar    1  UNL1       -0.0042
     18 C          65.8843   90.9451   13.9156 C.ar    1  UNL1       -0.0027
     19 C          66.4542   92.0267   13.0465 C.ar    1  UNL1       -0.0003
     20 C          65.6780   92.5255   11.8638 C.ar    1  UNL1        0.0002
     21 C          64.3319   91.9426   11.5502 C.ar    1  UNL1       -0.0003
     22 C          63.7621   90.8610   12.4193 C.ar    1  UNL1       -0.0027
     23 C          66.2479   93.6071   10.9947 C.ar    1  UNL1        0.0062
     24 C          66.0847   95.0464   11.3844 C.ar    1  UNL1        0.0189
     25 C          66.6546   96.1280   10.5153 C.ar    1  UNL1        0.0784
     26 N          67.3877   95.7704    9.2565 N.ar    1  UNL1       -0.2922
     27 C          67.9576   96.8520    8.3874 C.3     1  UNL1        0.1336
     28 C          67.5509   94.3311    8.8668 C.ar    1  UNL1        0.2610
     29 O          68.2841   93.9734    7.6080 O.2     1  UNL1       -0.2670
     30 C          66.9810   93.2495    9.7359 C.ar    1  UNL1        0.0608
     31 C          62.3780   84.6137   11.5499 C.3     1  UNL1        0.0715
     32 C          62.2748   85.3706   10.2590 C.3     1  UNL1        0.0922
     33 C          63.5330   84.7141    9.7734 C.3     1  UNL1        0.0294
     34 C          61.0165   86.0271   10.7446 C.3     1  UNL1        0.0294
     35 O          62.1715   86.1274    8.9680 O.3     1  UNL1       -0.3866
     36 H          62.9164   85.8902    8.3938 H       1  UNL1        0.2102
@<TRIPOS>BOND
     1    16    15    1
     2    16    17    1
     3    17    18   ar
     4    18    19   ar
     5    19    20   ar
     6    20    23    1
     7    23    24   ar
     8    24    25   ar
     9    25    26   ar
    10    26    27    1
    11    26    28   ar
    12    28    29    2
    13    28    30   ar
    14    20    21   ar
    15    21    22   ar
    16    16     1    1
    17     1     2    1
    18     2     3    1
    19     3     4    1
    20     4    31    1
    21    31    32    1
    22    32    33    1
    23    32    34    1
    24    32    35    1
    25     4     8    1
    26     8     9   ar
    27     9    10   ar
    28    10    11   ar
    29    11    12   ar
    30    12    13   ar
    31    13    14    1
    32     4     5    1
    33     5     6    1
    34     6     7    2
    35    22    17   ar
    36     6     1   am
    37    30    23   ar
    38    13     8   ar
    39    35    36    1
@<TRIPOS>MOLECULE
*****
 36 39 0 0 0
SMALL
GASTEIGER

@<TRIPOS>ATOM
      1 N          62.1269   87.4044   12.0028 N.am    1  UNL1       -0.2438
      2 C          61.7156   86.2260   11.1708 C.3     1  UNL1        0.1009
      3 C          62.2738   84.8660   11.4689 C.3     1  UNL1        0.0662
      4 C          63.2433   84.6845   12.5990 C.3     1  UNL1        0.1621
      5 O          63.6547   85.8629   13.4310 O.3     1  UNL1       -0.4374
      6 C          63.0964   87.2229   13.1329 C.2     1  UNL1        0.4051
      7 O          63.5077   88.4013   13.9648 O.2     1  UNL1       -0.2262
      8 C          63.1585   83.2727   12.0992 C.ar    1  UNL1        0.0413
      9 C          62.4241   82.2372   12.8981 C.ar    1  UNL1        0.0013
     10 C          62.3392   80.8254   12.3984 C.ar    1  UNL1       -0.0001
     11 C          62.9888   80.4492   11.0997 C.ar    1  UNL1        0.0023
     12 C          63.7233   81.4847   10.3008 C.ar    1  UNL1        0.0294
     13 C          63.8081   82.8965   10.8005 C.ar    1  UNL1        0.1393
     14 F          64.5425   83.9321   10.0017 F       1  UNL1       -0.2044
     15 C          60.0857   88.9885   11.7300 C.3     1  UNL1        0.0265
     16 C          61.5687   88.7644   11.7047 C.3     1  UNL1        0.1011
     17 C          62.4934   89.9003   11.3812 C.ar    1  UNL1       -0.0042
     18 C          63.3645   90.4865   12.4524 C.ar    1  UNL1       -0.0027
     19 C          64.2892   91.6224   12.1289 C.ar    1  UNL1       -0.0003
     20 C          64.3429   92.1720   10.7343 C.ar    1  UNL1        0.0002
     21 C          63.4718   91.5857    9.6631 C.ar    1  UNL1       -0.0003
     22 C          62.5471   90.4499    9.9866 C.ar    1  UNL1       -0.0027
     23 C          65.2677   93.3079   10.4109 C.ar    1  UNL1        0.0062
     24 C          64.7478   94.7147   10.3868 C.ar    1  UNL1        0.0189
     25 C          65.6726   95.8506   10.0634 C.ar    1  UNL1        0.0784
     26 N          67.1172   95.5797    9.7640 N.ar    1  UNL1       -0.2922
     27 C          68.0420   96.7155    9.4406 C.3     1  UNL1        0.1336
     28 C          67.6371   94.1728    9.7880 C.ar    1  UNL1        0.2610
     29 O          69.0817   93.9018    9.4886 O.2     1  UNL1       -0.2670
     30 C          66.7123   93.0369   10.1115 C.ar    1  UNL1        0.0608
     31 C          64.1834   84.0126   13.5555 C.3     1  UNL1        0.0715
     32 C          64.3949   84.5849   14.9258 C.3     1  UNL1        0.0922
     33 C          65.7826   85.0016   14.5376 C.3     1  UNL1        0.0294
     34 C          63.0073   84.1682   15.3140 C.3     1  UNL1        0.0294
     35 O          64.6065   85.1572   16.2960 O.3     1  UNL1       -0.3866
     36 H          65.4981   85.5346   16.3547 H       1  UNL1        0.2102
@<TRIPOS>BOND
     1    16    15    1
     2    16    17    1
     3    17    18   ar
     4    18    19   ar
     5    19    20   ar
     6    20    23    1
     7    23    24   ar
     8    24    25   ar
     9    25    26   ar
    10    26    27    1
    11    26    28   ar
    12    28    29    2
    13    28    30   ar
    14    20    21   ar
    15    21    22   ar
    16    16     1    1
    17     1     2    1
    18     2     3    1
    19     3     4    1
    20     4    31    1
    21    31    32    1
    22    32    33    1
    23    32    34    1
    24    32    35    1
    25     4     8    1
    26     8     9   ar
    27     9    10   ar
    28    10    11   ar
    29    11    12   ar
    30    12    13   ar
    31    13    14    1
    32     4     5    1
    33     5     6    1
    34     6     7    2
    35    22    17   ar
    36     6     1   am
    37    30    23   ar
    38    13     8   ar
    39    35    36    1
