@<TRIPOS>MOLECULE
*****
 36 40 0 0 0
SMALL
GASTEIGER

@<TRIPOS>ATOM
      1 C          64.3017   90.3496   14.3671 C.ar    1  UNL1        0.1527
      2 C          63.9320   90.7881   15.7531 C.ar    1  UNL1        0.1332
      3 N          63.5122   89.7725   16.7740 N.ar    1  UNL1       -0.2355
      4 C          63.4621   88.3185   16.4090 C.ar    1  UNL1        0.1459
      5 C          63.0898   87.0979   17.1975 C.ar    1  UNL1        0.1892
      6 N          63.2295   85.9051   16.2988 N.ar    1  UNL1       -0.1556
      7 N          63.6880   86.3885   14.9549 N.ar    1  UNL1       -0.2298
      8 C          63.8318   87.8800   15.0230 C.ar    1  UNL1        0.1811
      9 N          64.2516   88.8955   14.0020 N.ar    1  UNL1       -0.2090
     10 C          66.7976   94.7418   13.1507 C.3     1  UNL1        0.0031
     11 C          65.9695   93.5612   12.7379 C.3     1  UNL1        0.0345
     12 C          65.5497   92.5457   13.7589 C.3     1  UNL1        0.0935
     13 N          64.7215   91.3652   13.3460 N.pl3   1  UNL1       -0.2919
     14 C          64.3131   91.2001   11.9122 C.3     1  UNL1        0.0936
     15 C          64.7329   92.2156   10.8912 C.3     1  UNL1        0.0375
     16 C          65.5611   93.3962   11.3040 C.3     1  UNL1        0.0608
     17 N          65.9808   94.4117   10.2830 N.3     1  UNL1       -0.2729
     18 C          65.3290   95.7410   10.0417 C.3     1  UNL1        0.0721
     19 C          66.0714   96.4271    8.9336 C.3     1  UNL1        0.0188
     20 C          67.1822   95.5218    8.4899 C.3     1  UNL1        0.0199
     21 C          67.1262   94.2763    9.3239 C.3     1  UNL1        0.0870
     22 C          68.0528   93.1016    9.2175 C.3     1  UNL1        0.1530
     23 O          69.4241   93.1707    9.8215 O.3     1  UNL1       -0.3806
     24 H          69.9511   93.8361    9.3520 H       1  UNL1        0.2105
     25 C          62.6544   87.0743   18.6327 C.1     1  UNL1        0.1232
     26 N          62.2190   87.0509   20.0679 N.1     1  UNL1       -0.1891
     27 C          63.9558   85.5309   13.7537 C.3     1  UNL1        0.1299
     28 C          65.0173   84.4725   13.8093 C.3     1  UNL1        0.0313
     29 C          63.1620   85.7316   12.4969 C.ar    1  UNL1        0.0106
     30 C          62.8325   87.1189   12.0314 C.ar    1  UNL1       -0.0007
     31 C          62.0388   87.3196   10.7745 C.ar    1  UNL1        0.0112
     32 C          61.5745   86.1330    9.9832 C.ar    1  UNL1        0.0585
     33 CL         60.7807   86.3336    8.7263 Cl      1  UNL1       -0.0822
     34 C          61.9039   84.7456   10.4487 C.ar    1  UNL1        0.0225
     35 C          62.6977   84.5449   11.7055 C.ar    1  UNL1        0.0563
     36 CL         63.0271   83.1576   12.1710 Cl      1  UNL1       -0.0825
@<TRIPOS>BOND
     1    11    10    1
     2    11    12    1
     3    12    13    1
     4    13     1    1
     5     1     2   ar
     6     2     3   ar
     7     3     4   ar
     8     4     5   ar
     9     5    25    1
    10    25    26    3
    11     5     6   ar
    12     6     7   ar
    13     7    27    1
    14    27    28    1
    15    27    29    1
    16    29    30   ar
    17    30    31   ar
    18    31    32   ar
    19    32    33    1
    20    32    34   ar
    21    34    35   ar
    22    35    36    1
    23     7     8   ar
    24     8     9   ar
    25    13    14    1
    26    14    15    1
    27    15    16    1
    28    16    17    1
    29    17    18    1
    30    18    19    1
    31    19    20    1
    32    20    21    1
    33    21    22    1
    34    22    23    1
    35    16    11    1
    36    21    17    1
    37     9     1   ar
    38     8     4   ar
    39    35    29   ar
    40    23    24    1
@<TRIPOS>MOLECULE
*****
 36 40 0 0 0
SMALL
GASTEIGER

@<TRIPOS>ATOM
      1 C          63.6185   86.5520   13.5033 C.ar    1  UNL1        0.1527
      2 C          64.0432   86.8108   14.9184 C.ar    1  UNL1        0.1332
      3 N          64.2060   88.2197   15.4068 N.ar    1  UNL1       -0.2355
      4 C          63.9441   89.3697   14.4801 C.ar    1  UNL1        0.1459
      5 C          64.0210   90.8548   14.6768 C.ar    1  UNL1        0.1892
      6 N          63.6437   91.5138   13.3832 N.ar    1  UNL1       -0.1556
      7 N          63.3337   90.4360   12.3870 N.ar    1  UNL1       -0.2298
      8 C          63.5194   89.1109   13.0650 C.ar    1  UNL1        0.1811
      9 N          63.3566   87.7020   12.5766 N.ar    1  UNL1       -0.2090
     10 C          64.8248   81.5083   13.8296 C.3     1  UNL1        0.0031
     11 C          64.0588   82.6212   13.1780 C.3     1  UNL1        0.0345
     12 C          64.2217   84.0301   13.6665 C.3     1  UNL1        0.0935
     13 N          63.4556   85.1431   13.0149 N.pl3   1  UNL1       -0.2919
     14 C          62.5268   84.8472   11.8749 C.3     1  UNL1        0.0936
     15 C          62.3639   83.4383   11.3864 C.3     1  UNL1        0.0375
     16 C          63.1299   82.3253   12.0380 C.3     1  UNL1        0.0608
     17 N          62.9671   80.9165   11.5496 N.3     1  UNL1       -0.2729
     18 C          63.3084   80.4138   10.1782 C.3     1  UNL1        0.0721
     19 C          62.9866   78.9496   10.1278 C.3     1  UNL1        0.0188
     20 C          62.4463   78.5474   11.4681 C.3     1  UNL1        0.0199
     21 C          62.4342   79.7630   12.3468 C.3     1  UNL1        0.0870
     22 C          61.9707   79.8158   13.7724 C.3     1  UNL1        0.1530
     23 O          60.9048   80.7898   14.1789 O.3     1  UNL1       -0.3806
     24 H          61.2405   81.6949   14.0838 H       1  UNL1        0.2105
     25 C          64.4073   91.5575   15.9444 C.1     1  UNL1        0.1232
     26 N          64.7935   92.2603   17.2120 N.1     1  UNL1       -0.1891
     27 C          62.9121   90.6463   10.9630 C.3     1  UNL1        0.1299
     28 C          63.4307   91.8248   10.1935 C.3     1  UNL1        0.0313
     29 C          61.9718   89.6781   10.3084 C.ar    1  UNL1        0.0106
     30 C          62.5134   88.4973    9.5584 C.ar    1  UNL1       -0.0007
     31 C          61.5731   87.5291    8.9038 C.ar    1  UNL1        0.0112
     32 C          60.0913   87.7417    8.9991 C.ar    1  UNL1        0.0585
     33 CL         59.1510   86.7736    8.3445 Cl      1  UNL1       -0.0822
     34 C          59.5498   88.9226    9.7490 C.ar    1  UNL1        0.0225
     35 C          60.4901   89.8908   10.4037 C.ar    1  UNL1        0.0563
     36 CL         59.9486   91.0716   11.1536 Cl      1  UNL1       -0.0825
@<TRIPOS>BOND
     1    11    10    1
     2    11    12    1
     3    12    13    1
     4    13     1    1
     5     1     2   ar
     6     2     3   ar
     7     3     4   ar
     8     4     5   ar
     9     5    25    1
    10    25    26    3
    11     5     6   ar
    12     6     7   ar
    13     7    27    1
    14    27    28    1
    15    27    29    1
    16    29    30   ar
    17    30    31   ar
    18    31    32   ar
    19    32    33    1
    20    32    34   ar
    21    34    35   ar
    22    35    36    1
    23     7     8   ar
    24     8     9   ar
    25    13    14    1
    26    14    15    1
    27    15    16    1
    28    16    17    1
    29    17    18    1
    30    18    19    1
    31    19    20    1
    32    20    21    1
    33    21    22    1
    34    22    23    1
    35    16    11    1
    36    21    17    1
    37     9     1   ar
    38     8     4   ar
    39    35    29   ar
    40    23    24    1
@<TRIPOS>MOLECULE
*****
 36 40 0 0 0
SMALL
GASTEIGER

@<TRIPOS>ATOM
      1 C          63.5134   89.6130   12.0405 C.ar    1  UNL1        0.1527
      2 C          62.5847   90.2551   11.0530 C.ar    1  UNL1        0.1332
      3 N          61.5738   89.4217   10.3227 N.ar    1  UNL1       -0.2355
      4 C          61.4914   87.9463   10.5800 C.ar    1  UNL1        0.1459
      5 C          60.6040   86.8769   10.0150 C.ar    1  UNL1        0.1892
      6 N          60.9843   85.5739   10.6535 N.ar    1  UNL1       -0.1556
      7 N          62.1066   85.8380   11.6130 N.ar    1  UNL1       -0.2298
      8 C          62.4200   87.3042   11.5676 C.ar    1  UNL1        0.1811
      9 N          63.4310   88.1375   12.2978 N.ar    1  UNL1       -0.2090
     10 C          66.4925   93.8618   12.3108 C.3     1  UNL1        0.0031
     11 C          66.0140   92.5708   12.9060 C.3     1  UNL1        0.0345
     12 C          65.0030   91.7374   12.1757 C.3     1  UNL1        0.0935
     13 N          64.5244   90.4464   12.7709 N.pl3   1  UNL1       -0.2919
     14 C          65.0569   89.9887   14.0964 C.3     1  UNL1        0.0936
     15 C          66.0679   90.8220   14.8267 C.3     1  UNL1        0.0375
     16 C          66.5465   92.1131   14.2315 C.3     1  UNL1        0.0608
     17 N          67.5575   92.9464   14.9619 N.3     1  UNL1       -0.2729
     18 C          67.2564   94.0116   15.9742 C.3     1  UNL1        0.0721
     19 C          68.5599   94.5844   16.4461 C.3     1  UNL1        0.0188
     20 C          69.6667   93.8731   15.7254 C.3     1  UNL1        0.0199
     21 C          69.0471   92.8608   14.8081 C.3     1  UNL1        0.0870
     22 C          69.7873   91.9269   13.8971 C.3     1  UNL1        0.1530
     23 O          69.2171   91.5809   12.5535 O.3     1  UNL1       -0.3806
     24 H          68.3965   91.0770   12.6706 H       1  UNL1        0.2105
     25 C          59.5258   87.0757    8.9914 C.1     1  UNL1        0.1232
     26 N          58.4475   87.2745    7.9679 N.1     1  UNL1       -0.1891
     27 C          62.7948   84.8154   12.4678 C.3     1  UNL1        0.1299
     28 C          63.4600   85.2315   13.7462 C.3     1  UNL1        0.0313
     29 C          62.8177   83.3766   12.0443 C.ar    1  UNL1        0.0106
     30 C          62.2779   82.3170   12.9585 C.ar    1  UNL1       -0.0007
     31 C          62.3008   80.8782   12.5350 C.ar    1  UNL1        0.0112
     32 C          62.8636   80.4990   11.1973 C.ar    1  UNL1        0.0585
     33 CL         62.8866   79.0602   10.7737 Cl      1  UNL1       -0.0822
     34 C          63.4034   81.5586   10.2831 C.ar    1  UNL1        0.0225
     35 C          63.3805   82.9974   10.7066 C.ar    1  UNL1        0.0563
     36 CL         63.9203   84.0571    9.7924 Cl      1  UNL1       -0.0825
@<TRIPOS>BOND
     1    11    10    1
     2    11    12    1
     3    12    13    1
     4    13     1    1
     5     1     2   ar
     6     2     3   ar
     7     3     4   ar
     8     4     5   ar
     9     5    25    1
    10    25    26    3
    11     5     6   ar
    12     6     7   ar
    13     7    27    1
    14    27    28    1
    15    27    29    1
    16    29    30   ar
    17    30    31   ar
    18    31    32   ar
    19    32    33    1
    20    32    34   ar
    21    34    35   ar
    22    35    36    1
    23     7     8   ar
    24     8     9   ar
    25    13    14    1
    26    14    15    1
    27    15    16    1
    28    16    17    1
    29    17    18    1
    30    18    19    1
    31    19    20    1
    32    20    21    1
    33    21    22    1
    34    22    23    1
    35    16    11    1
    36    21    17    1
    37     9     1   ar
    38     8     4   ar
    39    35    29   ar
    40    23    24    1
@<TRIPOS>MOLECULE
*****
 36 40 0 0 0
SMALL
GASTEIGER

@<TRIPOS>ATOM
      1 C          62.6609   89.8629   11.0038 C.ar    1  UNL1        0.1527
      2 C          61.5593   90.7336   10.4763 C.ar    1  UNL1        0.1332
      3 N          60.5606   90.1746    9.5067 N.ar    1  UNL1       -0.2355
      4 C          60.6635   88.7449    9.0647 C.ar    1  UNL1        0.1459
      5 C          59.8312   87.9220    8.1265 C.ar    1  UNL1        0.1892
      6 N          60.4184   86.5427    8.0742 N.ar    1  UNL1       -0.1556
      7 N          61.6136   86.5132    8.9801 N.ar    1  UNL1       -0.2298
      8 C          61.7651   87.8742    9.5922 C.ar    1  UNL1        0.1811
      9 N          62.7638   88.4332   10.5618 N.ar    1  UNL1       -0.2090
     10 C          66.0929   93.5387   12.3115 C.3     1  UNL1        0.0031
     11 C          65.3756   92.2597   12.6273 C.3     1  UNL1        0.0345
     12 C          64.3769   91.7008   11.6577 C.3     1  UNL1        0.0935
     13 N          63.6596   90.4218   11.9735 N.pl3   1  UNL1       -0.2919
     14 C          63.9411   89.7018   13.2589 C.3     1  UNL1        0.0936
     15 C          64.9398   90.2607   14.2285 C.3     1  UNL1        0.0375
     16 C          65.6571   91.5397   13.9127 C.3     1  UNL1        0.0608
     17 N          66.6558   92.0986   14.8824 N.3     1  UNL1       -0.2729
     18 C          66.3429   92.7127   16.2146 C.3     1  UNL1        0.0721
     19 C          67.6364   93.1352   16.8456 C.3     1  UNL1        0.0188
     20 C          68.7488   92.7821   15.9033 C.3     1  UNL1        0.0199
     21 C          68.1427   92.1415   14.6900 C.3     1  UNL1        0.0870
     22 C          68.8921   91.6330   13.4942 C.3     1  UNL1        0.1530
     23 O          70.3362   91.9922   13.3055 O.3     1  UNL1       -0.3806
     24 H          70.4146   92.9468   13.1522 H       1  UNL1        0.2105
     25 C          58.6237   88.3954    7.3729 C.1     1  UNL1        0.1232
     26 N          57.4163   88.8687    6.6193 N.1     1  UNL1       -0.1891
     27 C          62.5014   85.3303    9.2300 C.3     1  UNL1        0.1299
     28 C          63.1859   84.6503    8.0815 C.3     1  UNL1        0.0313
     29 C          62.7048   84.8273   10.6285 C.ar    1  UNL1        0.0106
     30 C          62.0131   85.5016   11.7760 C.ar    1  UNL1       -0.0007
     31 C          62.2165   84.9986   13.1745 C.ar    1  UNL1        0.0112
     32 C          63.1116   83.8214   13.4254 C.ar    1  UNL1        0.0585
     33 CL         63.3150   83.3183   14.8238 Cl      1  UNL1       -0.0822
     34 C          63.8033   83.1471   12.2778 C.ar    1  UNL1        0.0225
     35 C          63.5999   83.6501   10.8794 C.ar    1  UNL1        0.0563
     36 CL         64.2916   82.9759    9.7318 Cl      1  UNL1       -0.0825
@<TRIPOS>BOND
     1    11    10    1
     2    11    12    1
     3    12    13    1
     4    13     1    1
     5     1     2   ar
     6     2     3   ar
     7     3     4   ar
     8     4     5   ar
     9     5    25    1
    10    25    26    3
    11     5     6   ar
    12     6     7   ar
    13     7    27    1
    14    27    28    1
    15    27    29    1
    16    29    30   ar
    17    30    31   ar
    18    31    32   ar
    19    32    33    1
    20    32    34   ar
    21    34    35   ar
    22    35    36    1
    23     7     8   ar
    24     8     9   ar
    25    13    14    1
    26    14    15    1
    27    15    16    1
    28    16    17    1
    29    17    18    1
    30    18    19    1
    31    19    20    1
    32    20    21    1
    33    21    22    1
    34    22    23    1
    35    16    11    1
    36    21    17    1
    37     9     1   ar
    38     8     4   ar
    39    35    29   ar
    40    23    24    1
@<TRIPOS>MOLECULE
*****
 36 40 0 0 0
SMALL
GASTEIGER

@<TRIPOS>ATOM
      1 C          62.7175   89.8784   10.9644 C.ar    1  UNL1        0.1527
      2 C          61.6123   90.7417   10.4324 C.ar    1  UNL1        0.1332
      3 N          60.6079   90.1697    9.4764 N.ar    1  UNL1       -0.2355
      4 C          60.7087   88.7344    9.0524 C.ar    1  UNL1        0.1459
      5 C          59.8710   87.8990    8.1302 C.ar    1  UNL1        0.1892
      6 N          60.4585   86.5194    8.0923 N.ar    1  UNL1       -0.1556
      7 N          61.6594   86.5022    8.9910 N.ar    1  UNL1       -0.2298
      8 C          61.8140   87.8711    9.5844 C.ar    1  UNL1        0.1811
      9 N          62.8184   88.4431   10.5404 N.ar    1  UNL1       -0.2090
     10 C          66.1495   93.5769   12.2066 C.3     1  UNL1        0.0031
     11 C          65.4380   92.2996   12.5416 C.3     1  UNL1        0.0345
     12 C          64.4335   91.7276   11.5855 C.3     1  UNL1        0.0935
     13 N          63.7220   90.4503   11.9205 N.pl3   1  UNL1       -0.2919
     14 C          64.0149   89.7449   13.2114 C.3     1  UNL1        0.0936
     15 C          65.0193   90.3168   14.1675 C.3     1  UNL1        0.0375
     16 C          65.7309   91.5942   13.8326 C.3     1  UNL1        0.0608
     17 N          66.7353   92.1661   14.7886 N.3     1  UNL1       -0.2729
     18 C          68.1499   92.5421   14.4608 C.3     1  UNL1        0.0721
     19 C          68.7904   93.0708   15.7099 C.3     1  UNL1        0.0188
     20 C          67.7715   93.0214   16.8097 C.3     1  UNL1        0.0199
     21 C          66.5015   92.4623   16.2403 C.3     1  UNL1        0.0870
     22 C          65.2222   92.2387   16.9909 C.3     1  UNL1        0.1530
     23 O          64.2603   93.3726   17.1883 O.3     1  UNL1       -0.3806
     24 H          64.6662   94.0458   17.7566 H       1  UNL1        0.2105
     25 C          58.6586   88.3620    7.3780 C.1     1  UNL1        0.1232
     26 N          57.4462   88.8250    6.6260 N.1     1  UNL1       -0.1891
     27 C          62.5494   85.3230    9.2507 C.3     1  UNL1        0.1299
     28 C          63.2654   84.6586    8.1124 C.3     1  UNL1        0.0313
     29 C          62.7234   84.8083   10.6489 C.ar    1  UNL1        0.0106
     30 C          62.0230   85.4848   11.7898 C.ar    1  UNL1       -0.0007
     31 C          62.1970   84.9700   13.1879 C.ar    1  UNL1        0.0112
     32 C          63.0714   83.7787   13.4451 C.ar    1  UNL1        0.0585
     33 CL         63.2454   83.2639   14.8432 Cl      1  UNL1       -0.0822
     34 C          63.7717   83.1022   12.3042 C.ar    1  UNL1        0.0225
     35 C          63.5977   83.6169   10.9061 C.ar    1  UNL1        0.0563
     36 CL         64.2981   82.9404    9.7651 Cl      1  UNL1       -0.0825
@<TRIPOS>BOND
     1    11    10    1
     2    11    12    1
     3    12    13    1
     4    13     1    1
     5     1     2   ar
     6     2     3   ar
     7     3     4   ar
     8     4     5   ar
     9     5    25    1
    10    25    26    3
    11     5     6   ar
    12     6     7   ar
    13     7    27    1
    14    27    28    1
    15    27    29    1
    16    29    30   ar
    17    30    31   ar
    18    31    32   ar
    19    32    33    1
    20    32    34   ar
    21    34    35   ar
    22    35    36    1
    23     7     8   ar
    24     8     9   ar
    25    13    14    1
    26    14    15    1
    27    15    16    1
    28    16    17    1
    29    17    18    1
    30    18    19    1
    31    19    20    1
    32    20    21    1
    33    21    22    1
    34    22    23    1
    35    16    11    1
    36    21    17    1
    37     9     1   ar
    38     8     4   ar
    39    35    29   ar
    40    23    24    1
@<TRIPOS>MOLECULE
*****
 36 40 0 0 0
SMALL
GASTEIGER

@<TRIPOS>ATOM
      1 C          64.2537   90.2515   14.0257 C.ar    1  UNL1        0.1527
      2 C          64.1700   90.5927   15.4839 C.ar    1  UNL1        0.1332
      3 N          63.7513   89.5481   16.4757 N.ar    1  UNL1       -0.2355
      4 C          63.4164   88.1624   16.0091 C.ar    1  UNL1        0.1459
      5 C          62.9767   86.9334   16.7482 C.ar    1  UNL1        0.1892
      6 N          62.7887   85.8327   15.7467 N.ar    1  UNL1       -0.1556
      7 N          63.1121   86.3814   14.3887 N.ar    1  UNL1       -0.2298
      8 C          63.5001   87.8213   14.5509 C.ar    1  UNL1        0.1811
      9 N          63.9187   88.8658   13.5591 N.ar    1  UNL1       -0.2090
     10 C          66.7695   94.6638   12.9286 C.3     1  UNL1        0.0031
     11 C          65.9303   93.5022   12.4853 C.3     1  UNL1        0.0345
     12 C          65.5116   92.4576   13.4771 C.3     1  UNL1        0.0935
     13 N          64.6724   91.2961   13.0339 N.pl3   1  UNL1       -0.2919
     14 C          64.2518   91.1791   11.5988 C.3     1  UNL1        0.0936
     15 C          64.6704   92.2236   10.6070 C.3     1  UNL1        0.0375
     16 C          65.5097   93.3852   11.0502 C.3     1  UNL1        0.0608
     17 N          65.9283   94.4297   10.0584 N.3     1  UNL1       -0.2729
     18 C          65.2491   95.7467    9.8252 C.3     1  UNL1        0.0721
     19 C          66.0007   96.4716    8.7483 C.3     1  UNL1        0.0188
     20 C          67.1445   95.6026    8.3161 C.3     1  UNL1        0.0199
     21 C          67.0997   94.3407    9.1257 C.3     1  UNL1        0.0870
     22 C          68.0581   93.1916    9.0211 C.3     1  UNL1        0.1530
     23 O          69.3149   93.1860    9.8399 O.3     1  UNL1       -0.3806
     24 H          69.8940   93.9074    9.5482 H       1  UNL1        0.2105
     25 C          62.7626   86.8242   18.2288 C.1     1  UNL1        0.1232
     26 N          62.5484   86.7151   19.7094 N.1     1  UNL1       -0.1891
     27 C          63.0573   85.6234   13.0954 C.3     1  UNL1        0.1299
     28 C          63.1715   86.3558   11.7914 C.3     1  UNL1        0.0313
     29 C          62.8884   84.1330   13.1063 C.ar    1  UNL1        0.0106
     30 C          62.3949   83.4431   14.3434 C.ar    1  UNL1       -0.0007
     31 C          62.2260   81.9527   14.3542 C.ar    1  UNL1        0.0112
     32 C          62.5504   81.1522   13.1279 C.ar    1  UNL1        0.0585
     33 CL         62.3815   79.6617   13.1386 Cl      1  UNL1       -0.0822
     34 C          63.0439   81.8421   11.8907 C.ar    1  UNL1        0.0225
     35 C          63.2128   83.3325   11.8799 C.ar    1  UNL1        0.0563
     36 CL         63.7063   84.0224   10.6428 Cl      1  UNL1       -0.0825
@<TRIPOS>BOND
     1    11    10    1
     2    11    12    1
     3    12    13    1
     4    13     1    1
     5     1     2   ar
     6     2     3   ar
     7     3     4   ar
     8     4     5   ar
     9     5    25    1
    10    25    26    3
    11     5     6   ar
    12     6     7   ar
    13     7    27    1
    14    27    28    1
    15    27    29    1
    16    29    30   ar
    17    30    31   ar
    18    31    32   ar
    19    32    33    1
    20    32    34   ar
    21    34    35   ar
    22    35    36    1
    23     7     8   ar
    24     8     9   ar
    25    13    14    1
    26    14    15    1
    27    15    16    1
    28    16    17    1
    29    17    18    1
    30    18    19    1
    31    19    20    1
    32    20    21    1
    33    21    22    1
    34    22    23    1
    35    16    11    1
    36    21    17    1
    37     9     1   ar
    38     8     4   ar
    39    35    29   ar
    40    23    24    1
@<TRIPOS>MOLECULE
*****
 36 40 0 0 0
SMALL
GASTEIGER

@<TRIPOS>ATOM
      1 C          64.1403   89.3512   13.2635 C.ar    1  UNL1        0.1527
      2 C          64.1168   89.2179   14.7574 C.ar    1  UNL1        0.1332
      3 N          63.6758   87.9307   15.3886 N.ar    1  UNL1       -0.2355
      4 C          63.2581   86.7768   14.5260 C.ar    1  UNL1        0.1459
      5 C          62.7793   85.3952   14.8607 C.ar    1  UNL1        0.1892
      6 N          62.5069   84.6746   13.5736 N.ar    1  UNL1       -0.1556
      7 N          62.8173   85.6109   12.4435 N.ar    1  UNL1       -0.2298
      8 C          63.2815   86.9101   13.0321 C.ar    1  UNL1        0.1811
      9 N          63.7226   88.1973   12.4009 N.ar    1  UNL1       -0.2090
     10 C          66.8092   93.8026   13.5122 C.3     1  UNL1        0.0031
     11 C          65.9158   92.8642   12.7565 C.3     1  UNL1        0.0345
     12 C          65.4747   91.5769   13.3879 C.3     1  UNL1        0.0935
     13 N          64.5814   90.6385   12.6322 N.pl3   1  UNL1       -0.2919
     14 C          64.1290   90.9872   11.2452 C.3     1  UNL1        0.0936
     15 C          64.5701   92.2743   10.6138 C.3     1  UNL1        0.0375
     16 C          65.4635   93.2129   11.3695 C.3     1  UNL1        0.0608
     17 N          65.9046   94.5000   10.7382 N.3     1  UNL1       -0.2729
     18 C          65.3140   95.8551   10.9935 C.3     1  UNL1        0.0721
     19 C          66.0581   96.8507   10.1538 C.3     1  UNL1        0.0188
     20 C          67.1085   96.1109    9.3795 C.3     1  UNL1        0.0199
     21 C          67.0136   94.6582    9.7407 C.3     1  UNL1        0.0870
     22 C          67.8763   93.5570    9.1994 C.3     1  UNL1        0.1530
     23 O          68.9745   92.9808   10.0433 O.3     1  UNL1       -0.3806
     24 H          69.6525   93.6572   10.1975 H       1  UNL1        0.2105
     25 C          62.6038   84.8329   16.2402 C.1     1  UNL1        0.1232
     26 N          62.4283   84.2705   17.6196 N.1     1  UNL1       -0.1891
     27 C          62.6864   85.3022   10.9815 C.3     1  UNL1        0.1299
     28 C          63.4911   84.1914   10.3745 C.3     1  UNL1        0.0313
     29 C          61.7506   86.1043   10.1264 C.ar    1  UNL1        0.0106
     30 C          60.7281   86.9960   10.7662 C.ar    1  UNL1       -0.0007
     31 C          59.7924   87.7981    9.9111 C.ar    1  UNL1        0.0112
     32 C          59.8792   87.7084    8.4163 C.ar    1  UNL1        0.0585
     33 CL         58.9435   88.5105    7.5611 Cl      1  UNL1       -0.0822
     34 C          60.9018   86.8167    7.7766 C.ar    1  UNL1        0.0225
     35 C          61.8375   86.0146    8.6317 C.ar    1  UNL1        0.0563
     36 CL         62.8600   85.1229    7.9919 Cl      1  UNL1       -0.0825
@<TRIPOS>BOND
     1    11    10    1
     2    11    12    1
     3    12    13    1
     4    13     1    1
     5     1     2   ar
     6     2     3   ar
     7     3     4   ar
     8     4     5   ar
     9     5    25    1
    10    25    26    3
    11     5     6   ar
    12     6     7   ar
    13     7    27    1
    14    27    28    1
    15    27    29    1
    16    29    30   ar
    17    30    31   ar
    18    31    32   ar
    19    32    33    1
    20    32    34   ar
    21    34    35   ar
    22    35    36    1
    23     7     8   ar
    24     8     9   ar
    25    13    14    1
    26    14    15    1
    27    15    16    1
    28    16    17    1
    29    17    18    1
    30    18    19    1
    31    19    20    1
    32    20    21    1
    33    21    22    1
    34    22    23    1
    35    16    11    1
    36    21    17    1
    37     9     1   ar
    38     8     4   ar
    39    35    29   ar
    40    23    24    1
@<TRIPOS>MOLECULE
*****
 36 40 0 0 0
SMALL
GASTEIGER

@<TRIPOS>ATOM
      1 C          63.4313   89.6050   12.7180 C.ar    1  UNL1        0.1527
      2 C          62.7000   89.6480   14.0269 C.ar    1  UNL1        0.1332
      3 N          63.1914   90.5353   15.1318 N.ar    1  UNL1       -0.2355
      4 C          64.4142   91.3798   14.9279 C.ar    1  UNL1        0.1459
      5 C          65.1294   92.3441   15.8273 C.ar    1  UNL1        0.1892
      6 N          66.3029   92.8971   15.0742 N.ar    1  UNL1       -0.1556
      7 N          66.3128   92.2746   13.7094 N.ar    1  UNL1       -0.2298
      8 C          65.1456   91.3369   13.6191 C.ar    1  UNL1        0.1811
      9 N          64.6542   90.4495   12.5141 N.ar    1  UNL1       -0.2090
     10 C          62.2960   84.8630   10.9225 C.3     1  UNL1        0.0031
     11 C          62.3723   86.3466   10.7152 C.3     1  UNL1        0.0345
     12 C          62.8637   87.2340   11.8202 C.3     1  UNL1        0.0935
     13 N          62.9399   88.7176   11.6130 N.pl3   1  UNL1       -0.2919
     14 C          62.5248   89.3139   10.3007 C.3     1  UNL1        0.0936
     15 C          62.0334   88.4266    9.1957 C.3     1  UNL1        0.0375
     16 C          61.9571   86.9429    9.4029 C.3     1  UNL1        0.0608
     17 N          61.4657   86.0555    8.2979 N.3     1  UNL1       -0.2729
     18 C          62.2826   85.0435    7.5505 C.3     1  UNL1        0.0721
     19 C          61.3929   84.3869    6.5369 C.3     1  UNL1        0.0188
     20 C          60.0262   84.9932    6.6579 C.3     1  UNL1        0.0199
     21 C          60.0712   86.0244    7.7462 C.3     1  UNL1        0.0870
     22 C          58.9233   86.8752    8.2027 C.3     1  UNL1        0.1530
     23 O          58.4966   88.0596    7.3871 O.3     1  UNL1       -0.3806
     24 H          59.2025   88.7249    7.3893 H       1  UNL1        0.2105
     25 C          64.7397   92.6939   17.2329 C.1     1  UNL1        0.1232
     26 N          64.3499   93.0437   18.6384 N.1     1  UNL1       -0.1891
     27 C          67.3143   92.5428   12.6253 C.3     1  UNL1        0.1299
     28 C          68.6239   91.8115   12.6164 C.3     1  UNL1        0.0313
     29 C          67.0061   93.5423   11.5501 C.ar    1  UNL1        0.0106
     30 C          66.2708   94.8051   11.8885 C.ar    1  UNL1       -0.0007
     31 C          65.9626   95.8046   10.8133 C.ar    1  UNL1        0.0112
     32 C          66.3897   95.5413    9.3997 C.ar    1  UNL1        0.0585
     33 CL         66.0816   96.5407    8.3245 Cl      1  UNL1       -0.0822
     34 C          67.1251   94.2784    9.0614 C.ar    1  UNL1        0.0225
     35 C          67.4332   93.2789   10.1366 C.ar    1  UNL1        0.0563
     36 CL         68.1686   92.0161    9.7982 Cl      1  UNL1       -0.0825
@<TRIPOS>BOND
     1    11    10    1
     2    11    12    1
     3    12    13    1
     4    13     1    1
     5     1     2   ar
     6     2     3   ar
     7     3     4   ar
     8     4     5   ar
     9     5    25    1
    10    25    26    3
    11     5     6   ar
    12     6     7   ar
    13     7    27    1
    14    27    28    1
    15    27    29    1
    16    29    30   ar
    17    30    31   ar
    18    31    32   ar
    19    32    33    1
    20    32    34   ar
    21    34    35   ar
    22    35    36    1
    23     7     8   ar
    24     8     9   ar
    25    13    14    1
    26    14    15    1
    27    15    16    1
    28    16    17    1
    29    17    18    1
    30    18    19    1
    31    19    20    1
    32    20    21    1
    33    21    22    1
    34    22    23    1
    35    16    11    1
    36    21    17    1
    37     9     1   ar
    38     8     4   ar
    39    35    29   ar
    40    23    24    1
@<TRIPOS>MOLECULE
*****
 36 40 0 0 0
SMALL
GASTEIGER

@<TRIPOS>ATOM
      1 C          61.9247   87.6335   10.9602 C.ar    1  UNL1        0.1527
      2 C          61.9992   86.1380   11.0484 C.ar    1  UNL1        0.1332
      3 N          62.7284   85.4893   12.1874 N.ar    1  UNL1       -0.2355
      4 C          63.3832   86.3361   13.2382 C.ar    1  UNL1        0.1459
      5 C          64.1662   85.9827   14.4679 C.ar    1  UNL1        0.1892
      6 N          64.5756   87.2598   15.1396 N.ar    1  UNL1       -0.1556
      7 N          64.0457   88.4025   14.3251 N.ar    1  UNL1       -0.2298
      8 C          63.3088   87.8317   13.1500 C.ar    1  UNL1        0.1811
      9 N          62.5795   88.4804   12.0110 N.ar    1  UNL1       -0.2090
     10 C          58.9504   87.2456    6.7171 C.3     1  UNL1        0.0031
     11 C          59.7083   88.0884    7.6996 C.3     1  UNL1        0.0345
     12 C          60.4376   87.4396    8.8387 C.3     1  UNL1        0.0935
     13 N          61.1955   88.2823    9.8211 N.pl3   1  UNL1       -0.2919
     14 C          61.2242   89.7739    9.6647 C.3     1  UNL1        0.0936
     15 C          60.4950   90.4227    8.5257 C.3     1  UNL1        0.0375
     16 C          59.7370   89.5799    7.5431 C.3     1  UNL1        0.0608
     17 N          59.0078   90.2287    6.4042 N.3     1  UNL1       -0.2729
     18 C          57.5193   90.2817    6.2262 C.3     1  UNL1        0.0721
     19 C          57.2306   91.0242    4.9552 C.3     1  UNL1        0.0188
     20 C          58.5407   91.4300    4.3477 C.3     1  UNL1        0.0199
     21 C          59.6390   90.9384    5.2432 C.3     1  UNL1        0.0870
     22 C          61.1103   91.1239    5.0174 C.3     1  UNL1        0.1530
     23 O          61.5998   91.7704    3.7554 O.3     1  UNL1       -0.3806
     24 H          61.3899   91.2016    2.9983 H       1  UNL1        0.2105
     25 C          64.4839   84.5957   14.9424 C.1     1  UNL1        0.1232
     26 N          64.8017   83.2087   15.4170 N.1     1  UNL1       -0.1891
     27 C          64.2218   89.8602   14.6319 C.3     1  UNL1        0.1299
     28 C          63.8180   90.3987   15.9723 C.3     1  UNL1        0.0313
     29 C          64.8018   90.7795   13.5981 C.ar    1  UNL1        0.0106
     30 C          64.0263   91.0921   12.3528 C.ar    1  UNL1       -0.0007
     31 C          64.6062   92.0114   11.3190 C.ar    1  UNL1        0.0112
     32 C          65.9617   92.6180   11.5306 C.ar    1  UNL1        0.0585
     33 CL         66.5417   93.5373   10.4969 Cl      1  UNL1       -0.0822
     34 C          66.7371   92.3054   12.7759 C.ar    1  UNL1        0.0225
     35 C          66.1572   91.3861   13.8097 C.ar    1  UNL1        0.0563
     36 CL         66.9327   91.0735   15.0550 Cl      1  UNL1       -0.0825
@<TRIPOS>BOND
     1    11    10    1
     2    11    12    1
     3    12    13    1
     4    13     1    1
     5     1     2   ar
     6     2     3   ar
     7     3     4   ar
     8     4     5   ar
     9     5    25    1
    10    25    26    3
    11     5     6   ar
    12     6     7   ar
    13     7    27    1
    14    27    28    1
    15    27    29    1
    16    29    30   ar
    17    30    31   ar
    18    31    32   ar
    19    32    33    1
    20    32    34   ar
    21    34    35   ar
    22    35    36    1
    23     7     8   ar
    24     8     9   ar
    25    13    14    1
    26    14    15    1
    27    15    16    1
    28    16    17    1
    29    17    18    1
    30    18    19    1
    31    19    20    1
    32    20    21    1
    33    21    22    1
    34    22    23    1
    35    16    11    1
    36    21    17    1
    37     9     1   ar
    38     8     4   ar
    39    35    29   ar
    40    23    24    1
