@<TRIPOS>MOLECULE
*****
 26 28 0 0 0
SMALL
GASTEIGER

@<TRIPOS>ATOM
      1 C          65.5282   90.8476   14.3159 C.3     1  UNL1        0.1350
      2 O          66.2115   89.6682   14.9421 O.3     1  UNL1       -0.3803
      3 H          65.6510   88.8822   14.8478 H       1  UNL1        0.2108
      4 C          66.6891   91.7199   14.6920 C.ar    1  UNL1        0.0315
      5 C          67.9538   91.6736   13.8868 C.ar    1  UNL1        0.0026
      6 C          69.1147   92.5458   14.2628 C.ar    1  UNL1        0.0295
      7 C          69.0110   93.4644   15.4441 C.ar    1  UNL1        0.1424
      8 F          70.1719   94.3366   15.8202 F       1  UNL1       -0.2041
      9 C          67.7463   93.5107   16.2494 C.ar    1  UNL1        0.0590
     10 C          66.5854   92.6385   15.8733 C.ar    1  UNL1        0.1406
     11 F          65.3207   92.6848   16.6786 F       1  UNL1       -0.2044
     12 C          63.4978   89.9651   12.9073 C.3     1  UNL1        0.0092
     13 C          64.3673   89.9754   13.9399 C.3     1  UNL1        0.0731
     14 C          63.9790   88.8234   14.8187 C.ar    1  UNL1        0.0919
     15 N          64.1880   87.4155   14.3456 N.ar    1  UNL1       -0.2260
     16 C          63.7998   86.2636   15.2245 C.ar    1  UNL1        0.1987
     17 N          63.2026   86.5197   16.5765 N.ar    1  UNL1       -0.2201
     18 C          62.9937   87.9277   17.0496 C.ar    1  UNL1        0.1314
     19 C          63.3819   89.0796   16.1707 C.ar    1  UNL1        0.1727
     20 F          63.1729   90.4876   16.6438 F       1  UNL1       -0.2013
     21 C          64.8449   92.0271   13.6898 C.3     1  UNL1        0.1405
     22 N          65.4752   92.7261   12.5219 N.ar    1  UNL1       -0.2876
     23 C          66.1699   94.0550   12.5597 C.ar    1  UNL1        0.2028
     24 N          66.6455   94.3691   11.1722 N.ar    1  UNL1       -0.1254
     25 N          66.2449   93.2343   10.2768 N.ar    1  UNL1       -0.1254
     26 C          65.5216   92.2189   11.1109 C.ar    1  UNL1        0.2028
@<TRIPOS>BOND
     1    13    12    1
     2    13    14    1
     3    14    15   ar
     4    15    16   ar
     5    16    17   ar
     6    17    18   ar
     7    18    19   ar
     8    19    20    1
     9    13     1    1
    10     1     2    1
    11     1    21    1
    12    21    22    1
    13    22    23   ar
    14    23    24   ar
    15    24    25   ar
    16    25    26   ar
    17     1     4    1
    18     4     5   ar
    19     5     6   ar
    20     6     7   ar
    21     7     8    1
    22     7     9   ar
    23     9    10   ar
    24    10    11    1
    25    19    14   ar
    26    26    22   ar
    27    10     4   ar
    28     2     3    1
@<TRIPOS>MOLECULE
*****
 26 28 0 0 0
SMALL
GASTEIGER

@<TRIPOS>ATOM
      1 C          65.2122   92.4306   11.6717 C.3     1  UNL1        0.1350
      2 O          64.8493   91.6750   10.4277 O.3     1  UNL1       -0.3803
      3 H          64.3272   90.8928   10.6653 H       1  UNL1        0.2108
      4 C          65.9403   93.4465   10.8422 C.ar    1  UNL1        0.0315
      5 C          65.5015   94.8807   10.8574 C.ar    1  UNL1        0.0026
      6 C          66.2296   95.8966   10.0280 C.ar    1  UNL1        0.0295
      7 C          67.3964   95.4782    9.1833 C.ar    1  UNL1        0.1424
      8 F          68.1244   96.4940    8.3539 F       1  UNL1       -0.2041
      9 C          67.8352   94.0438    9.1681 C.ar    1  UNL1        0.0590
     10 C          67.1071   93.0279    9.9975 C.ar    1  UNL1        0.1406
     11 F          67.5458   91.5936    9.9823 F       1  UNL1       -0.2044
     12 C          64.5529   91.0375   13.7954 C.3     1  UNL1        0.0092
     13 C          64.4841   91.4148   12.5011 C.3     1  UNL1        0.0731
     14 C          63.4191   90.5618   11.8779 C.ar    1  UNL1        0.0919
     15 N          62.4713   91.1562   10.8789 N.ar    1  UNL1       -0.2260
     16 C          61.4063   90.3033   10.2558 C.ar    1  UNL1        0.1987
     17 N          61.2892   88.8559   10.6317 N.ar    1  UNL1       -0.2201
     18 C          62.2370   88.2615   11.6308 C.ar    1  UNL1        0.1314
     19 C          63.3020   89.1144   12.2539 C.ar    1  UNL1        0.1727
     20 F          64.2499   88.5200   13.2531 F       1  UNL1       -0.2013
     21 C          65.5751   93.1862   12.9156 C.3     1  UNL1        0.1405
     22 N          66.9059   92.9595   13.5695 N.ar    1  UNL1       -0.2876
     23 C          67.4352   93.6897   14.7681 C.ar    1  UNL1        0.2028
     24 N          68.7975   93.1442   15.0789 N.ar    1  UNL1       -0.1254
     25 N          69.1102   92.0768   14.0724 N.ar    1  UNL1       -0.1254
     26 C          67.9411   91.9627   13.1396 C.ar    1  UNL1        0.2028
@<TRIPOS>BOND
     1    13    12    1
     2    13    14    1
     3    14    15   ar
     4    15    16   ar
     5    16    17   ar
     6    17    18   ar
     7    18    19   ar
     8    19    20    1
     9    13     1    1
    10     1     2    1
    11     1    21    1
    12    21    22    1
    13    22    23   ar
    14    23    24   ar
    15    24    25   ar
    16    25    26   ar
    17     1     4    1
    18     4     5   ar
    19     5     6   ar
    20     6     7   ar
    21     7     8    1
    22     7     9   ar
    23     9    10   ar
    24    10    11    1
    25    19    14   ar
    26    26    22   ar
    27    10     4   ar
    28     2     3    1
@<TRIPOS>MOLECULE
*****
 26 28 0 0 0
SMALL
GASTEIGER

@<TRIPOS>ATOM
      1 C          61.9206   87.6092   11.4312 C.3     1  UNL1        0.1350
      2 O          63.3184   87.8957   11.8939 O.3     1  UNL1       -0.3803
      3 H          63.3726   88.8105   12.2119 H       1  UNL1        0.2108
      4 C          62.3259   86.2100   11.0732 C.ar    1  UNL1        0.0315
      5 C          62.2654   85.1241   12.1062 C.ar    1  UNL1        0.0026
      6 C          62.6707   83.7250   11.7483 C.ar    1  UNL1        0.0295
      7 C          63.1365   83.4117   10.3573 C.ar    1  UNL1        0.1424
      8 F          63.5418   82.0126    9.9993 F       1  UNL1       -0.2041
      9 C          63.1971   84.4977    9.3242 C.ar    1  UNL1        0.0590
     10 C          62.7918   85.8968    9.6822 C.ar    1  UNL1        0.1406
     11 F          62.8523   86.9827    8.6492 F       1  UNL1       -0.2044
     12 C          60.3398   89.6720   11.7940 C.3     1  UNL1        0.0092
     13 C          61.5153   89.0083   11.7891 C.3     1  UNL1        0.0731
     14 C          62.5464   89.9903   12.2610 C.ar    1  UNL1        0.0919
     15 N          62.9106   90.0552   13.7146 N.ar    1  UNL1       -0.2260
     16 C          63.9416   91.0372   14.1864 C.ar    1  UNL1        0.1987
     17 N          64.6085   91.9543   13.2045 N.ar    1  UNL1       -0.2201
     18 C          64.2444   91.8895   11.7509 C.ar    1  UNL1        0.1314
     19 C          63.2133   90.9075   11.2791 C.ar    1  UNL1        0.1727
     20 F          62.8491   90.8426    9.8254 F       1  UNL1       -0.2013
     21 C          60.5229   87.3227   10.9684 C.3     1  UNL1        0.1405
     22 N          60.1199   87.6389    9.5587 N.ar    1  UNL1       -0.2876
     23 C          60.2984   88.9570    8.8652 C.ar    1  UNL1        0.2028
     24 N          59.7564   88.8252    7.4727 N.ar    1  UNL1       -0.1254
     25 N          59.2430   87.4257    7.3055 N.ar    1  UNL1       -0.1254
     26 C          59.4676   86.6926    8.5947 C.ar    1  UNL1        0.2028
@<TRIPOS>BOND
     1    13    12    1
     2    13    14    1
     3    14    15   ar
     4    15    16   ar
     5    16    17   ar
     6    17    18   ar
     7    18    19   ar
     8    19    20    1
     9    13     1    1
    10     1     2    1
    11     1    21    1
    12    21    22    1
    13    22    23   ar
    14    23    24   ar
    15    24    25   ar
    16    25    26   ar
    17     1     4    1
    18     4     5   ar
    19     5     6   ar
    20     6     7   ar
    21     7     8    1
    22     7     9   ar
    23     9    10   ar
    24    10    11    1
    25    19    14   ar
    26    26    22   ar
    27    10     4   ar
    28     2     3    1
@<TRIPOS>MOLECULE
*****
 26 28 0 0 0
SMALL
GASTEIGER

@<TRIPOS>ATOM
      1 C          63.5547   85.0654   12.5635 C.3     1  UNL1        0.1350
      2 O          63.1850   86.4892   12.8569 O.3     1  UNL1       -0.3803
      3 H          63.4995   86.7290   13.7426 H       1  UNL1        0.2108
      4 C          62.9081   85.1754   11.2145 C.ar    1  UNL1        0.0315
      5 C          61.6563   85.9846   11.0465 C.ar    1  UNL1        0.0026
      6 C          61.0097   86.0947    9.6975 C.ar    1  UNL1        0.0295
      7 C          61.6149   85.3955    8.5165 C.ar    1  UNL1        0.1424
      8 F          60.9683   85.5056    7.1675 F       1  UNL1       -0.2041
      9 C          62.8667   84.5863    8.6844 C.ar    1  UNL1        0.0590
     10 C          63.5133   84.4763   10.0334 C.ar    1  UNL1        0.1406
     11 F          64.7651   83.6671   10.2014 F       1  UNL1       -0.2044
     12 C          65.2419   84.2461   14.3986 C.3     1  UNL1        0.0092
     13 C          64.2012   84.9553   13.9125 C.3     1  UNL1        0.0731
     14 C          63.6730   85.7571   15.0650 C.ar    1  UNL1        0.0919
     15 N          63.9950   87.2182   15.1723 N.ar    1  UNL1       -0.2260
     16 C          63.4668   88.0199   16.3248 C.ar    1  UNL1        0.1987
     17 N          62.6166   87.3605   17.3700 N.ar    1  UNL1       -0.2201
     18 C          62.2946   85.8994   17.2627 C.ar    1  UNL1        0.1314
     19 C          62.8228   85.0977   16.1102 C.ar    1  UNL1        0.1727
     20 F          62.5008   83.6366   16.0029 F       1  UNL1       -0.2013
     21 C          63.9243   83.6416   12.2702 C.3     1  UNL1        0.1405
     22 N          63.2234   82.5228   12.9820 N.ar    1  UNL1       -0.2876
     23 C          63.8557   81.2504   13.4629 C.ar    1  UNL1        0.2028
     24 N          62.7900   80.4212   14.1161 N.ar    1  UNL1       -0.1254
     25 N          61.4990   81.1810   14.0390 N.ar    1  UNL1       -0.1254
     26 C          61.7668   82.4798   13.3381 C.ar    1  UNL1        0.2028
@<TRIPOS>BOND
     1    13    12    1
     2    13    14    1
     3    14    15   ar
     4    15    16   ar
     5    16    17   ar
     6    17    18   ar
     7    18    19   ar
     8    19    20    1
     9    13     1    1
    10     1     2    1
    11     1    21    1
    12    21    22    1
    13    22    23   ar
    14    23    24   ar
    15    24    25   ar
    16    25    26   ar
    17     1     4    1
    18     4     5   ar
    19     5     6   ar
    20     6     7   ar
    21     7     8    1
    22     7     9   ar
    23     9    10   ar
    24    10    11    1
    25    19    14   ar
    26    26    22   ar
    27    10     4   ar
    28     2     3    1
@<TRIPOS>MOLECULE
*****
 26 28 0 0 0
SMALL
GASTEIGER

@<TRIPOS>ATOM
      1 C          63.5796   85.0294   12.4607 C.3     1  UNL1        0.1350
      2 O          63.2071   86.4527   12.7527 O.3     1  UNL1       -0.3803
      3 H          63.5110   86.6905   13.6426 H       1  UNL1        0.2108
      4 C          62.9494   85.1427   11.1042 C.ar    1  UNL1        0.0315
      5 C          63.6207   84.5286    9.9117 C.ar    1  UNL1        0.0026
      6 C          62.9904   84.6420    8.5552 C.ar    1  UNL1        0.0295
      7 C          61.6889   85.3693    8.3913 C.ar    1  UNL1        0.1424
      8 F          61.0587   85.4826    7.0349 F       1  UNL1       -0.2041
      9 C          61.0175   85.9834    9.5839 C.ar    1  UNL1        0.0590
     10 C          61.6477   85.8701   10.9404 C.ar    1  UNL1        0.1406
     11 F          60.9764   86.4841   12.1329 F       1  UNL1       -0.2044
     12 C          65.2418   84.2023   14.3151 C.3     1  UNL1        0.0092
     13 C          64.2098   84.9160   13.8171 C.3     1  UNL1        0.0731
     14 C          63.6714   85.7195   14.9638 C.ar    1  UNL1        0.0919
     15 N          63.9929   87.1806   15.0720 N.ar    1  UNL1       -0.2260
     16 C          63.4545   87.9840   16.2186 C.ar    1  UNL1        0.1987
     17 N          62.5947   87.3263   17.2569 N.ar    1  UNL1       -0.2201
     18 C          62.2732   85.8652   17.1487 C.ar    1  UNL1        0.1314
     19 C          62.8116   85.0618   16.0021 C.ar    1  UNL1        0.1727
     20 F          62.4902   83.6006   15.8938 F       1  UNL1       -0.2013
     21 C          63.9521   83.6060   12.1687 C.3     1  UNL1        0.1405
     22 N          63.2478   82.4862   12.8758 N.ar    1  UNL1       -0.2876
     23 C          61.7795   82.4178   13.1753 C.ar    1  UNL1        0.2028
     24 N          61.5125   81.1275   13.8923 N.ar    1  UNL1       -0.1254
     25 N          62.8155   80.3985   14.0359 N.ar    1  UNL1       -0.1254
     26 C          63.8880   81.2383   13.4077 C.ar    1  UNL1        0.2028
@<TRIPOS>BOND
     1    13    12    1
     2    13    14    1
     3    14    15   ar
     4    15    16   ar
     5    16    17   ar
     6    17    18   ar
     7    18    19   ar
     8    19    20    1
     9    13     1    1
    10     1     2    1
    11     1    21    1
    12    21    22    1
    13    22    23   ar
    14    23    24   ar
    15    24    25   ar
    16    25    26   ar
    17     1     4    1
    18     4     5   ar
    19     5     6   ar
    20     6     7   ar
    21     7     8    1
    22     7     9   ar
    23     9    10   ar
    24    10    11    1
    25    19    14   ar
    26    26    22   ar
    27    10     4   ar
    28     2     3    1
@<TRIPOS>MOLECULE
*****
 26 28 0 0 0
SMALL
GASTEIGER

@<TRIPOS>ATOM
      1 C          58.8996   93.3147   -0.0724 C.3     1  UNL1        0.1350
      2 O          58.6957   91.8741   -0.4374 O.3     1  UNL1       -0.3803
      3 H          57.9741   91.8029   -1.0817 H       1  UNL1        0.2108
      4 C          60.0112   92.9222    0.8553 C.ar    1  UNL1        0.0315
      5 C          59.7891   92.9332    2.3387 C.ar    1  UNL1        0.0026
      6 C          60.9006   92.5408    3.2663 C.ar    1  UNL1        0.0295
      7 C          62.2342   92.1374    2.7106 C.ar    1  UNL1        0.1424
      8 F          63.3457   91.7450    3.6382 F       1  UNL1       -0.2041
      9 C          62.4563   92.1265    1.2271 C.ar    1  UNL1        0.0590
     10 C          61.3448   92.5189    0.2994 C.ar    1  UNL1        0.1406
     11 F          61.5668   92.5080   -1.1840 F       1  UNL1       -0.2044
     12 C          57.0458   94.8240   -1.1546 C.3     1  UNL1        0.0092
     13 C          57.7881   93.7071   -1.0001 C.3     1  UNL1        0.0731
     14 C          57.2957   92.7373   -2.0331 C.ar    1  UNL1        0.0919
     15 N          56.1353   91.8382   -1.7250 N.ar    1  UNL1       -0.2260
     16 C          55.6430   90.8684   -2.7580 C.ar    1  UNL1        0.1987
     17 N          56.3111   90.7977   -4.0991 N.ar    1  UNL1       -0.2201
     18 C          57.4716   91.6968   -4.4072 C.ar    1  UNL1        0.1314
     19 C          57.9639   92.6666   -3.3742 C.ar    1  UNL1        0.1727
     20 F          59.1244   93.5657   -3.6823 F       1  UNL1       -0.2013
     21 C          59.1036   94.7552    0.2926 C.3     1  UNL1        0.1405
     22 N          60.3117   95.4914   -0.2057 N.ar    1  UNL1       -0.2876
     23 C          61.3327   96.1878    0.6445 C.ar    1  UNL1        0.2028
     24 N          62.3630   96.7873   -0.2662 N.ar    1  UNL1       -0.1254
     25 N          61.9788   96.4614   -1.6790 N.ar    1  UNL1       -0.1254
     26 C          60.7111   95.6605   -1.6417 C.ar    1  UNL1        0.2028
@<TRIPOS>BOND
     1    13    12    1
     2    13    14    1
     3    14    15   ar
     4    15    16   ar
     5    16    17   ar
     6    17    18   ar
     7    18    19   ar
     8    19    20    1
     9    13     1    1
    10     1     2    1
    11     1    21    1
    12    21    22    1
    13    22    23   ar
    14    23    24   ar
    15    24    25   ar
    16    25    26   ar
    17     1     4    1
    18     4     5   ar
    19     5     6   ar
    20     6     7   ar
    21     7     8    1
    22     7     9   ar
    23     9    10   ar
    24    10    11    1
    25    19    14   ar
    26    26    22   ar
    27    10     4   ar
    28     2     3    1
@<TRIPOS>MOLECULE
*****
 26 28 0 0 0
SMALL
GASTEIGER

@<TRIPOS>ATOM
      1 C          62.2920   85.9550   11.0930 C.3     1  UNL1        0.1350
      2 O          61.7411   85.6747   12.4597 O.3     1  UNL1       -0.3803
      3 H          62.0563   84.8094   12.7642 H       1  UNL1        0.2108
      4 C          61.5803   87.2753   11.0768 C.ar    1  UNL1        0.0315
      5 C          60.1952   87.3737   10.5096 C.ar    1  UNL1        0.0026
      6 C          59.4835   88.6940   10.4934 C.ar    1  UNL1        0.0295
      7 C          60.1568   89.9158   11.0444 C.ar    1  UNL1        0.1424
      8 F          59.4451   91.2361   11.0282 F       1  UNL1       -0.2041
      9 C          61.5420   89.8174   11.6117 C.ar    1  UNL1        0.0590
     10 C          62.2537   88.4971   11.6279 C.ar    1  UNL1        0.1406
     11 F          63.6388   88.3987   12.1951 F       1  UNL1       -0.2044
     12 C          63.4838   83.8162   10.1489 C.3     1  UNL1        0.0092
     13 C          63.0038   84.6347   11.1092 C.3     1  UNL1        0.0731
     14 C          63.3128   83.9652   12.4155 C.ar    1  UNL1        0.0919
     15 N          64.1615   84.6655   13.4348 N.ar    1  UNL1       -0.2260
     16 C          64.4705   83.9960   14.7410 C.ar    1  UNL1        0.1987
     17 N          63.9307   82.6262   15.0279 N.ar    1  UNL1       -0.2201
     18 C          63.0820   81.9259   14.0086 C.ar    1  UNL1        0.1314
     19 C          62.7730   82.5954   12.7023 C.ar    1  UNL1        0.1727
     20 F          61.9242   81.8951   11.6829 F       1  UNL1       -0.2013
     21 C          62.8430   86.2352    9.7262 C.3     1  UNL1        0.1405
     22 N          62.1249   85.7300    8.5101 N.ar    1  UNL1       -0.2876
     23 C          60.6670   85.9121    8.2077 C.ar    1  UNL1        0.2028
     24 N          60.3799   85.2486    6.8934 N.ar    1  UNL1       -0.1254
     25 N          61.6602   84.6564    6.3835 N.ar    1  UNL1       -0.1254
     26 C          62.7387   84.9539    7.3826 C.ar    1  UNL1        0.2028
@<TRIPOS>BOND
     1    13    12    1
     2    13    14    1
     3    14    15   ar
     4    15    16   ar
     5    16    17   ar
     6    17    18   ar
     7    18    19   ar
     8    19    20    1
     9    13     1    1
    10     1     2    1
    11     1    21    1
    12    21    22    1
    13    22    23   ar
    14    23    24   ar
    15    24    25   ar
    16    25    26   ar
    17     1     4    1
    18     4     5   ar
    19     5     6   ar
    20     6     7   ar
    21     7     8    1
    22     7     9   ar
    23     9    10   ar
    24    10    11    1
    25    19    14   ar
    26    26    22   ar
    27    10     4   ar
    28     2     3    1
@<TRIPOS>MOLECULE
*****
 26 28 0 0 0
SMALL
GASTEIGER

@<TRIPOS>ATOM
      1 C          61.9971   87.6749   11.3230 C.3     1  UNL1        0.1350
      2 O          63.4114   87.9563   11.7361 O.3     1  UNL1       -0.3803
      3 H          63.4798   88.8704   12.0532 H       1  UNL1        0.2108
      4 C          62.3849   86.2750   10.9489 C.ar    1  UNL1        0.0315
      5 C          62.7527   85.9521    9.5310 C.ar    1  UNL1        0.0026
      6 C          63.1405   84.5522    9.1570 C.ar    1  UNL1        0.0295
      7 C          63.1605   83.4752   10.2008 C.ar    1  UNL1        0.1424
      8 F          63.5483   82.0754    9.8267 F       1  UNL1       -0.2041
      9 C          62.7927   83.7981   11.6187 C.ar    1  UNL1        0.0590
     10 C          62.4049   85.1980   11.9928 C.ar    1  UNL1        0.1406
     11 F          62.0372   85.5208   13.4107 F       1  UNL1       -0.2044
     12 C          60.4433   89.6674   12.0311 C.3     1  UNL1        0.0092
     13 C          61.6093   89.0748   11.6971 C.3     1  UNL1        0.0731
     14 C          62.6510   90.1528   11.7501 C.ar    1  UNL1        0.0919
     15 N          63.0984   90.8263   10.4867 N.ar    1  UNL1       -0.2260
     16 C          64.1400   91.9042   10.5397 C.ar    1  UNL1        0.1987
     17 N          64.7343   92.3088   11.8562 N.ar    1  UNL1       -0.2201
     18 C          64.2870   91.6354   13.1197 C.ar    1  UNL1        0.1314
     19 C          63.2453   90.5574   13.0666 C.ar    1  UNL1        0.1727
     20 F          62.7979   89.8839   14.3301 F       1  UNL1       -0.2013
     21 C          60.5829   87.3935   10.9098 C.3     1  UNL1        0.1405
     22 N          60.1301   87.7163    9.5167 N.ar    1  UNL1       -0.2876
     23 C          59.3983   86.7905    8.5907 C.ar    1  UNL1        0.2028
     24 N          59.1457   87.5237    7.3067 N.ar    1  UNL1       -0.1254
     25 N          59.7213   88.9025    7.4390 N.ar    1  UNL1       -0.1254
     26 C          60.3297   89.0215    8.8049 C.ar    1  UNL1        0.2028
@<TRIPOS>BOND
     1    13    12    1
     2    13    14    1
     3    14    15   ar
     4    15    16   ar
     5    16    17   ar
     6    17    18   ar
     7    18    19   ar
     8    19    20    1
     9    13     1    1
    10     1     2    1
    11     1    21    1
    12    21    22    1
    13    22    23   ar
    14    23    24   ar
    15    24    25   ar
    16    25    26   ar
    17     1     4    1
    18     4     5   ar
    19     5     6   ar
    20     6     7   ar
    21     7     8    1
    22     7     9   ar
    23     9    10   ar
    24    10    11    1
    25    19    14   ar
    26    26    22   ar
    27    10     4   ar
    28     2     3    1
@<TRIPOS>MOLECULE
*****
 26 28 0 0 0
SMALL
GASTEIGER

@<TRIPOS>ATOM
      1 C          71.9790   71.4684   14.9358 C.3     1  UNL1        0.1350
      2 O          73.2697   70.7472   15.1885 O.3     1  UNL1       -0.3803
      3 H          73.6009   70.3757   14.3559 H       1  UNL1        0.2108
      4 C          71.8921   71.8227   16.3908 C.ar    1  UNL1        0.0315
      5 C          70.9783   71.0523   17.2970 C.ar    1  UNL1        0.0026
      6 C          70.8914   71.4066   18.7520 C.ar    1  UNL1        0.0295
      7 C          71.7184   72.5312   19.3007 C.ar    1  UNL1        0.1424
      8 F          71.6315   72.8855   20.7557 F       1  UNL1       -0.2041
      9 C          72.6323   73.3017   18.3945 C.ar    1  UNL1        0.0590
     10 C          72.7191   72.9475   16.9395 C.ar    1  UNL1        0.1406
     11 F          73.6330   73.7179   16.0333 F       1  UNL1       -0.2044
     12 C          73.0607   71.1340   12.5686 C.3     1  UNL1        0.0092
     13 C          72.0659   71.1142   13.4808 C.3     1  UNL1        0.0731
     14 C          70.8510   70.6141   12.7569 C.ar    1  UNL1        0.0919
     15 N          70.3410   71.3477   11.5520 N.ar    1  UNL1       -0.2260
     16 C          69.1262   70.8477   10.8281 C.ar    1  UNL1        0.1987
     17 N          68.4213   69.6140   11.3090 N.ar    1  UNL1       -0.2201
     18 C          68.9313   68.8804   12.5139 C.ar    1  UNL1        0.1314
     19 C          70.1461   69.3805   13.2378 C.ar    1  UNL1        0.1727
     20 F          70.6562   68.6468   14.4427 F       1  UNL1       -0.2013
     21 C          70.6883   72.1897   14.6831 C.3     1  UNL1        0.1405
     22 N          70.6578   73.6893   14.6672 N.ar    1  UNL1       -0.2876
     23 C          69.9031   74.5660   15.6222 C.ar    1  UNL1        0.2028
     24 N          70.1556   75.9940   15.2386 N.ar    1  UNL1       -0.1254
     25 N          71.0662   75.9999   14.0466 N.ar    1  UNL1       -0.1254
     26 C          71.3765   74.5755   13.6935 C.ar    1  UNL1        0.2028
@<TRIPOS>BOND
     1    13    12    1
     2    13    14    1
     3    14    15   ar
     4    15    16   ar
     5    16    17   ar
     6    17    18   ar
     7    18    19   ar
     8    19    20    1
     9    13     1    1
    10     1     2    1
    11     1    21    1
    12    21    22    1
    13    22    23   ar
    14    23    24   ar
    15    24    25   ar
    16    25    26   ar
    17     1     4    1
    18     4     5   ar
    19     5     6   ar
    20     6     7   ar
    21     7     8    1
    22     7     9   ar
    23     9    10   ar
    24    10    11    1
    25    19    14   ar
    26    26    22   ar
    27    10     4   ar
    28     2     3    1
