@<TRIPOS>MOLECULE
*****
 31 34 0 0 0
SMALL
GASTEIGER

@<TRIPOS>ATOM
      1 C          62.3329   89.3913   10.8371 C.ar    1  UNL1        0.1042
      2 C          63.0611   90.7023   10.8033 C.ar    1  UNL1        0.0335
      3 C          64.0366   91.0466   11.8895 C.ar    1  UNL1        0.1261
      4 C          64.2840   90.0799   13.0095 C.ar    1  UNL1        0.0234
      5 C          63.5558   88.7690   13.0433 C.ar    1  UNL1        0.0396
      6 C          62.5803   88.4247   11.9571 C.ar    1  UNL1        0.1549
      7 S          64.7648   92.3576   11.8557 S.O2    1  UNL1        0.0751
      8 O          64.4830   92.4761   10.3872 O.2     1  UNL1       -0.1499
      9 O          65.0467   92.2390   13.3241 O.2     1  UNL1       -0.1499
     10 N          65.4930   93.6685   11.8218 N.pl3   1  UNL1       -0.1925
     11 H          65.2794   94.3674   12.4814 H       1  UNL1        0.1758
     12 C          66.5466   93.9146   10.7827 C.ar    1  UNL1        0.1977
     13 N          67.6107   92.9458   10.3595 N.ar    1  UNL1       -0.1997
     14 C          68.4428   93.6051    9.2997 C.ar    1  UNL1        0.2082
     15 N          67.8929   94.9814    9.0681 N.ar    1  UNL1       -0.1840
     16 S          66.7210   95.1726    9.9847 S.2     1  UNL1        0.0508
     17 N          60.3818   88.7027    8.6648 N.1     1  UNL1       -0.1907
     18 C          61.3574   89.0470    9.7510 C.1     1  UNL1        0.1035
     19 O          61.8521   87.1137   11.9910 O.3     1  UNL1       -0.4528
     20 C          62.5098   85.8764   11.4559 C.ar    1  UNL1        0.1451
     21 C          62.5492   85.6276    9.9772 C.ar    1  UNL1        0.0383
     22 C          63.2070   84.3902    9.4421 C.ar    1  UNL1        0.0145
     23 C          63.8254   83.4017   10.3857 C.ar    1  UNL1        0.0579
     24 CL         64.4831   82.1644    9.8506 Cl      1  UNL1       -0.0822
     25 C          63.7859   83.6505   11.8644 C.ar    1  UNL1        0.0142
     26 C          63.1282   84.8878   12.3995 C.ar    1  UNL1        0.0349
     27 C          63.0887   85.1366   13.8782 C.2     1  UNL1        0.0278
     28 C          62.0737   84.5893   14.8376 C.2     1  UNL1        0.1195
     29 N          62.4151   85.0908   16.2095 N.2     1  UNL1       -0.1510
     30 N          63.6410   85.9480   16.0980 N.2     1  UNL1       -0.1695
     31 C          64.0573   85.9763   14.6572 C.3     1  UNL1        0.1772
@<TRIPOS>BOND
     1    17    18    3
     2    18     1    1
     3     1     2   ar
     4     2     3   ar
     5     3     7    1
     6     7     8    2
     7     7     9    2
     8     7    10    1
     9    10    12    1
    10    12    13   ar
    11    13    14   ar
    12    14    15   ar
    13    15    16   ar
    14     3     4   ar
    15     4     5   ar
    16     5     6   ar
    17     6    19    1
    18    19    20    1
    19    20    21   ar
    20    21    22   ar
    21    22    23   ar
    22    23    24    1
    23    23    25   ar
    24    25    26   ar
    25    26    27    1
    26    27    28    2
    27    28    29    1
    28    29    30    2
    29    30    31    1
    30     6     1   ar
    31    26    20   ar
    32    31    27    1
    33    16    12   ar
    34    10    11    1
@<TRIPOS>MOLECULE
*****
 31 34 0 0 0
SMALL
GASTEIGER

@<TRIPOS>ATOM
      1 C          63.8093   90.1243   13.3721 C.ar    1  UNL1        0.1042
      2 C          64.7871   91.2561   13.2584 C.ar    1  UNL1        0.0335
      3 C          64.9530   91.9757   11.9528 C.ar    1  UNL1        0.1261
      4 C          64.1411   91.5635   10.7608 C.ar    1  UNL1        0.0234
      5 C          63.1633   90.4317   10.8745 C.ar    1  UNL1        0.0396
      6 C          62.9974   89.7122   12.1801 C.ar    1  UNL1        0.1549
      7 S          65.9309   93.1075   11.8392 S.O2    1  UNL1        0.0751
      8 O          66.1745   92.7527   10.4023 O.2     1  UNL1       -0.1499
      9 O          65.6873   93.4623   13.2761 O.2     1  UNL1       -0.1499
     10 N          66.9087   94.2392   11.7255 N.pl3   1  UNL1       -0.1925
     11 H          67.6098   94.3543   12.4070 H       1  UNL1        0.1758
     12 C          66.8184   95.1957   10.5735 C.ar    1  UNL1        0.1977
     13 N          67.8894   95.4531    9.5553 N.ar    1  UNL1       -0.1997
     14 C          67.3741   96.4791    8.5899 C.ar    1  UNL1        0.2082
     15 N          65.9847   96.8557    9.0115 N.ar    1  UNL1       -0.1840
     16 S          65.6413   96.0625   10.2374 S.2     1  UNL1        0.0508
     17 N          63.4776   88.6852   15.9833 N.1     1  UNL1       -0.1907
     18 C          63.6434   89.4047   14.6777 C.1     1  UNL1        0.1035
     19 O          62.0195   88.5803   12.2937 O.3     1  UNL1       -0.4528
     20 C          61.3744   88.0200   11.0610 C.ar    1  UNL1        0.1451
     21 C          60.5128   88.8963   10.2009 C.ar    1  UNL1        0.0383
     22 C          59.8676   88.3358    8.9681 C.ar    1  UNL1        0.0145
     23 C          60.0841   86.8991    8.5954 C.ar    1  UNL1        0.0579
     24 CL         59.4390   86.3388    7.3626 Cl      1  UNL1       -0.0822
     25 C          60.9457   86.0228    9.4554 C.ar    1  UNL1        0.0142
     26 C          61.5909   86.5832   10.6882 C.ar    1  UNL1        0.0349
     27 C          62.4525   85.7069   11.5482 C.2     1  UNL1        0.0278
     28 C          62.7849   84.2677   11.2865 C.2     1  UNL1        0.1195
     29 N          63.6708   83.7872   12.3976 N.2     1  UNL1       -0.1510
     30 N          63.8860   84.9294   13.3458 N.2     1  UNL1       -0.1695
     31 C          63.1330   86.1157   12.8209 C.3     1  UNL1        0.1772
@<TRIPOS>BOND
     1    17    18    3
     2    18     1    1
     3     1     2   ar
     4     2     3   ar
     5     3     7    1
     6     7     8    2
     7     7     9    2
     8     7    10    1
     9    10    12    1
    10    12    13   ar
    11    13    14   ar
    12    14    15   ar
    13    15    16   ar
    14     3     4   ar
    15     4     5   ar
    16     5     6   ar
    17     6    19    1
    18    19    20    1
    19    20    21   ar
    20    21    22   ar
    21    22    23   ar
    22    23    24    1
    23    23    25   ar
    24    25    26   ar
    25    26    27    1
    26    27    28    2
    27    28    29    1
    28    29    30    2
    29    30    31    1
    30     6     1   ar
    31    26    20   ar
    32    31    27    1
    33    16    12   ar
    34    10    11    1
@<TRIPOS>MOLECULE
*****
 31 34 0 0 0
SMALL
GASTEIGER

@<TRIPOS>ATOM
      1 C          62.4463   89.7545   10.8618 C.ar    1  UNL1        0.1042
      2 C          63.2179   91.0385   10.9390 C.ar    1  UNL1        0.0335
      3 C          64.2182   91.2475   12.0370 C.ar    1  UNL1        0.1261
      4 C          64.4469   90.1726   13.0579 C.ar    1  UNL1        0.0234
      5 C          63.6753   88.8886   12.9807 C.ar    1  UNL1        0.0396
      6 C          62.6750   88.6796   11.8827 C.ar    1  UNL1        0.1549
      7 S          64.9899   92.5315   12.1142 S.O2    1  UNL1        0.0751
      8 O          65.2422   92.2922   13.5733 O.2     1  UNL1       -0.1499
      9 O          64.7375   92.7709   10.6551 O.2     1  UNL1       -0.1499
     10 N          65.7615   93.8155   12.1914 N.pl3   1  UNL1       -0.1925
     11 H          65.7453   94.3506   13.0176 H       1  UNL1        0.1758
     12 C          66.5578   94.2842   11.0097 C.ar    1  UNL1        0.1977
     13 N          67.5742   93.4786   10.2560 N.ar    1  UNL1       -0.1997
     14 C          68.1222   94.3372    9.1548 C.ar    1  UNL1        0.2082
     15 N          67.4444   95.6734    9.2280 N.ar    1  UNL1       -0.1840
     16 S          66.4777   95.6406   10.3744 S.2     1  UNL1        0.0508
     17 N          60.4457   89.3365    8.6658 N.1     1  UNL1       -0.1907
     18 C          61.4460   89.5455    9.7638 C.1     1  UNL1        0.1035
     19 O          61.9033   87.3955   11.8055 O.3     1  UNL1       -0.4528
     20 C          62.6104   86.0841   11.9786 C.ar    1  UNL1        0.1451
     21 C          63.2793   85.7588   13.2812 C.ar    1  UNL1        0.0383
     22 C          63.9864   84.4473   13.4543 C.ar    1  UNL1        0.0145
     23 C          64.0246   83.4610   12.3248 C.ar    1  UNL1        0.0579
     24 CL         64.7316   82.1495   12.4980 Cl      1  UNL1       -0.0822
     25 C          63.3556   83.7862   11.0222 C.ar    1  UNL1        0.0142
     26 C          62.6486   85.0977   10.8491 C.ar    1  UNL1        0.0349
     27 C          61.9796   85.4229    9.5465 C.2     1  UNL1        0.0278
     28 C          60.6193   86.0334    9.3822 C.2     1  UNL1        0.1195
     29 N          60.3526   86.1825    7.9136 N.2     1  UNL1       -0.1510
     30 N          61.5479   85.6642    7.1704 N.2     1  UNL1       -0.1695
     31 C          62.5535   85.1948    8.1796 C.3     1  UNL1        0.1772
@<TRIPOS>BOND
     1    17    18    3
     2    18     1    1
     3     1     2   ar
     4     2     3   ar
     5     3     7    1
     6     7     8    2
     7     7     9    2
     8     7    10    1
     9    10    12    1
    10    12    13   ar
    11    13    14   ar
    12    14    15   ar
    13    15    16   ar
    14     3     4   ar
    15     4     5   ar
    16     5     6   ar
    17     6    19    1
    18    19    20    1
    19    20    21   ar
    20    21    22   ar
    21    22    23   ar
    22    23    24    1
    23    23    25   ar
    24    25    26   ar
    25    26    27    1
    26    27    28    2
    27    28    29    1
    28    29    30    2
    29    30    31    1
    30     6     1   ar
    31    26    20   ar
    32    31    27    1
    33    16    12   ar
    34    10    11    1
@<TRIPOS>MOLECULE
*****
 31 34 0 0 0
SMALL
GASTEIGER

@<TRIPOS>ATOM
      1 C          63.9073   89.7904   13.4329 C.ar    1  UNL1        0.1042
      2 C          64.6904   91.0694   13.4045 C.ar    1  UNL1        0.0335
      3 C          64.8063   91.8496   12.1287 C.ar    1  UNL1        0.1261
      4 C          64.1391   91.3509   10.8813 C.ar    1  UNL1        0.0234
      5 C          63.3560   90.0719   10.9097 C.ar    1  UNL1        0.0396
      6 C          63.2401   89.2917   12.1855 C.ar    1  UNL1        0.1549
      7 S          65.5895   93.1287   12.1003 S.O2    1  UNL1        0.0751
      8 O          66.1558   92.8119   13.4526 O.2     1  UNL1       -0.1499
      9 O          65.0232   93.4455   10.7480 O.2     1  UNL1       -0.1499
     10 N          66.3727   94.4076   12.0720 N.pl3   1  UNL1       -0.1925
     11 H          66.6404   94.8397   12.9151 H       1  UNL1        0.1758
     12 C          66.7480   95.0284   10.7590 C.ar    1  UNL1        0.1977
     13 N          67.6688   94.4348    9.7344 N.ar    1  UNL1       -0.1997
     14 C          67.7583   95.3912    8.5822 C.ar    1  UNL1        0.2082
     15 N          66.8928   96.5758    8.8948 N.ar    1  UNL1       -0.1840
     16 S          66.2684   96.3515   10.2401 S.2     1  UNL1        0.0508
     17 N          63.6754   88.2298   15.9846 N.1     1  UNL1       -0.1907
     18 C          63.7913   89.0101   14.7087 C.1     1  UNL1        0.1035
     19 O          62.4569   88.0126   12.2139 O.3     1  UNL1       -0.4528
     20 C          61.9707   87.4023   10.9328 C.ar    1  UNL1        0.1451
     21 C          62.7491   86.2946   10.2870 C.ar    1  UNL1        0.0383
     22 C          62.2630   85.6842    9.0059 C.ar    1  UNL1        0.0145
     23 C          60.9984   86.1816    8.3707 C.ar    1  UNL1        0.0579
     24 CL         60.5123   85.5712    7.0896 Cl      1  UNL1       -0.0822
     25 C          60.2200   87.2893    9.0165 C.ar    1  UNL1        0.0142
     26 C          60.7062   87.8996   10.2975 C.ar    1  UNL1        0.0349
     27 C          59.9278   89.0073   10.9434 C.2     1  UNL1        0.0278
     28 C          59.0822   88.8881   12.1767 C.2     1  UNL1        0.1195
     29 N          58.4901   90.2358   12.4648 N.2     1  UNL1       -0.1510
     30 N          58.9697   91.1880   11.4096 N.2     1  UNL1       -0.1695
     31 C          59.8582   90.4288   10.4694 C.3     1  UNL1        0.1772
@<TRIPOS>BOND
     1    17    18    3
     2    18     1    1
     3     1     2   ar
     4     2     3   ar
     5     3     7    1
     6     7     8    2
     7     7     9    2
     8     7    10    1
     9    10    12    1
    10    12    13   ar
    11    13    14   ar
    12    14    15   ar
    13    15    16   ar
    14     3     4   ar
    15     4     5   ar
    16     5     6   ar
    17     6    19    1
    18    19    20    1
    19    20    21   ar
    20    21    22   ar
    21    22    23   ar
    22    23    24    1
    23    23    25   ar
    24    25    26   ar
    25    26    27    1
    26    27    28    2
    27    28    29    1
    28    29    30    2
    29    30    31    1
    30     6     1   ar
    31    26    20   ar
    32    31    27    1
    33    16    12   ar
    34    10    11    1
@<TRIPOS>MOLECULE
*****
 31 34 0 0 0
SMALL
GASTEIGER

@<TRIPOS>ATOM
      1 C          62.0653   88.0117   10.8473 C.ar    1  UNL1        0.1042
      2 C          61.1615   88.6179    9.8150 C.ar    1  UNL1        0.0335
      3 C          60.4083   87.7341    8.8656 C.ar    1  UNL1        0.1261
      4 C          60.5589   86.2440    8.9484 C.ar    1  UNL1        0.0234
      5 C          61.4627   85.6377    9.9807 C.ar    1  UNL1        0.0396
      6 C          62.2159   86.5216   10.9301 C.ar    1  UNL1        0.1549
      7 S          59.5045   88.3404    7.8333 S.O2    1  UNL1        0.0751
      8 O          59.7933   89.7059    8.3825 O.2     1  UNL1       -0.1499
      9 O          59.2157   86.9748    7.2840 O.2     1  UNL1       -0.1499
     10 N          58.6008   88.9467    6.8010 N.pl3   1  UNL1       -0.1925
     11 H          57.6818   88.6104    6.6928 H       1  UNL1        0.1758
     12 C          59.0971   90.0654    5.9337 C.ar    1  UNL1        0.1977
     13 N          60.5107   90.2625    5.4722 N.ar    1  UNL1       -0.1997
     14 C          60.5543   91.5023    4.6288 C.ar    1  UNL1        0.2082
     15 N          59.1676   92.0713    4.5692 N.ar    1  UNL1       -0.1840
     16 S          58.2671   91.1832    5.3756 S.2     1  UNL1        0.0508
     17 N          63.5717   89.7794   12.7462 N.1     1  UNL1       -0.1907
     18 C          62.8185   88.8956   11.7968 C.1     1  UNL1        0.1035
     19 O          63.1197   85.9153   11.9624 O.3     1  UNL1       -0.4528
     20 C          63.0584   84.4427   12.2410 C.ar    1  UNL1        0.1451
     21 C          63.0449   83.4643   11.1041 C.ar    1  UNL1        0.0383
     22 C          62.9837   81.9916   11.3827 C.ar    1  UNL1        0.0145
     23 C          62.9359   81.4974   12.7981 C.ar    1  UNL1        0.0579
     24 CL         62.8747   80.0248   13.0767 Cl      1  UNL1       -0.0822
     25 C          62.9494   82.4759   13.9350 C.ar    1  UNL1        0.0142
     26 C          63.0107   83.9485   13.6565 C.ar    1  UNL1        0.0349
     27 C          63.0242   84.9269   14.7933 C.2     1  UNL1        0.0278
     28 C          63.9756   86.0751   14.9572 C.2     1  UNL1        0.1195
     29 N          63.6280   86.7867   16.2311 N.2     1  UNL1       -0.1510
     30 N          62.4619   86.0785   16.8545 N.2     1  UNL1       -0.1695
     31 C          62.0887   84.9291   15.9659 C.3     1  UNL1        0.1772
@<TRIPOS>BOND
     1    17    18    3
     2    18     1    1
     3     1     2   ar
     4     2     3   ar
     5     3     7    1
     6     7     8    2
     7     7     9    2
     8     7    10    1
     9    10    12    1
    10    12    13   ar
    11    13    14   ar
    12    14    15   ar
    13    15    16   ar
    14     3     4   ar
    15     4     5   ar
    16     5     6   ar
    17     6    19    1
    18    19    20    1
    19    20    21   ar
    20    21    22   ar
    21    22    23   ar
    22    23    24    1
    23    23    25   ar
    24    25    26   ar
    25    26    27    1
    26    27    28    2
    27    28    29    1
    28    29    30    2
    29    30    31    1
    30     6     1   ar
    31    26    20   ar
    32    31    27    1
    33    16    12   ar
    34    10    11    1
@<TRIPOS>MOLECULE
*****
 31 34 0 0 0
SMALL
GASTEIGER

@<TRIPOS>ATOM
      1 C          63.1963   89.0763   12.4639 C.ar    1  UNL1        0.1042
      2 C          63.1553   87.5837   12.6059 C.ar    1  UNL1        0.0335
      3 C          63.8423   86.9212   13.7631 C.ar    1  UNL1        0.1261
      4 C          64.5704   87.7514   14.7783 C.ar    1  UNL1        0.0234
      5 C          64.6114   89.2441   14.6363 C.ar    1  UNL1        0.0396
      6 C          63.9244   89.9065   13.4791 C.ar    1  UNL1        0.1549
      7 S          63.8013   85.4285   13.9051 S.O2    1  UNL1        0.0751
      8 O          62.4794   85.3975   13.1969 O.2     1  UNL1       -0.1499
      9 O          65.1231   85.4594   14.6134 O.2     1  UNL1       -0.1499
     10 N          63.7602   83.9358   14.0471 N.pl3   1  UNL1       -0.1925
     11 H          63.7976   83.5251   14.9410 H       1  UNL1        0.1758
     12 C          63.6619   83.0688   12.8269 C.ar    1  UNL1        0.1977
     13 N          64.4109   83.2664   11.5424 N.ar    1  UNL1       -0.1997
     14 C          64.0094   82.1717   10.5987 C.ar    1  UNL1        0.2082
     15 N          63.0123   81.2976   11.3000 N.ar    1  UNL1       -0.1840
     16 S          62.7976   81.8520   12.6771 S.2     1  UNL1        0.0508
     17 N          61.8223   90.4013   10.1495 N.1     1  UNL1       -0.1907
     18 C          62.5093   89.7388   11.3067 C.1     1  UNL1        0.1035
     19 O          63.9655   91.3993   13.3371 O.3     1  UNL1       -0.4528
     20 C          64.9178   92.0346   12.3679 C.ar    1  UNL1        0.1451
     21 C          64.5560   92.1316   10.9154 C.ar    1  UNL1        0.0383
     22 C          65.5083   92.7670    9.9461 C.ar    1  UNL1        0.0145
     23 C          66.8224   93.3052   10.4293 C.ar    1  UNL1        0.0579
     24 CL         67.7747   93.9404    9.4600 Cl      1  UNL1       -0.0822
     25 C          67.1842   93.2081   11.8818 C.ar    1  UNL1        0.0142
     26 C          66.2319   92.5728   12.8511 C.ar    1  UNL1        0.0349
     27 C          66.5937   92.4757   14.3035 C.2     1  UNL1        0.0278
     28 C          67.9387   92.1046   14.8543 C.2     1  UNL1        0.1195
     29 N          67.8502   92.1323   16.3514 N.2     1  UNL1       -0.1510
     30 N          66.4506   92.5204   16.7260 N.2     1  UNL1       -0.1695
     31 C          65.6740   92.7327   15.4603 C.3     1  UNL1        0.1772
@<TRIPOS>BOND
     1    17    18    3
     2    18     1    1
     3     1     2   ar
     4     2     3   ar
     5     3     7    1
     6     7     8    2
     7     7     9    2
     8     7    10    1
     9    10    12    1
    10    12    13   ar
    11    13    14   ar
    12    14    15   ar
    13    15    16   ar
    14     3     4   ar
    15     4     5   ar
    16     5     6   ar
    17     6    19    1
    18    19    20    1
    19    20    21   ar
    20    21    22   ar
    21    22    23   ar
    22    23    24    1
    23    23    25   ar
    24    25    26   ar
    25    26    27    1
    26    27    28    2
    27    28    29    1
    28    29    30    2
    29    30    31    1
    30     6     1   ar
    31    26    20   ar
    32    31    27    1
    33    16    12   ar
    34    10    11    1
@<TRIPOS>MOLECULE
*****
 31 34 0 0 0
SMALL
GASTEIGER

@<TRIPOS>ATOM
      1 C          63.5920   90.1852   13.2495 C.ar    1  UNL1        0.1042
      2 C          64.5661   91.3188   13.1219 C.ar    1  UNL1        0.0335
      3 C          64.8186   91.9433   11.7817 C.ar    1  UNL1        0.1261
      4 C          64.0971   91.4344   10.5691 C.ar    1  UNL1        0.0234
      5 C          63.1231   90.3009   10.6967 C.ar    1  UNL1        0.0396
      6 C          62.8705   89.6763   12.0369 C.ar    1  UNL1        0.1549
      7 S          65.7927   93.0769   11.6541 S.O2    1  UNL1        0.0751
      8 O          65.6922   93.3293   13.1292 O.2     1  UNL1       -0.1499
      9 O          65.8933   92.8245   10.1789 O.2     1  UNL1       -0.1499
     10 N          66.7668   94.2104   11.5265 N.pl3   1  UNL1       -0.1925
     11 H          67.4612   94.3422   12.2118 H       1  UNL1        0.1758
     12 C          66.6827   95.1433   10.3549 C.ar    1  UNL1        0.1977
     13 N          65.5915   96.1400   10.0980 N.ar    1  UNL1       -0.1997
     14 C          65.9095   96.8560    8.8188 C.ar    1  UNL1        0.2082
     15 N          67.1972   96.3018    8.2851 N.ar    1  UNL1       -0.1840
     16 S          67.6750   95.2433    9.2345 S.2     1  UNL1        0.0508
     17 N          63.0870   88.9361   15.9299 N.1     1  UNL1       -0.1907
     18 C          63.3395   89.5607   14.5897 C.1     1  UNL1        0.1035
     19 O          61.8964   88.5427   12.1645 O.3     1  UNL1       -0.4528
     20 C          62.3572   87.1307   11.9549 C.ar    1  UNL1        0.1451
     21 C          63.2338   86.4685   12.9761 C.ar    1  UNL1        0.0383
     22 C          63.6946   85.0564   12.7665 C.ar    1  UNL1        0.0145
     23 C          63.2787   84.3067   11.5357 C.ar    1  UNL1        0.0579
     24 CL         63.7394   82.8947   11.3261 Cl      1  UNL1       -0.0822
     25 C          62.4020   84.9690   10.5144 C.ar    1  UNL1        0.0142
     26 C          61.9413   86.3810   10.7240 C.ar    1  UNL1        0.0349
     27 C          61.0647   87.0433    9.7028 C.2     1  UNL1        0.0278
     28 C          60.4801   88.4211    9.8031 C.2     1  UNL1        0.1195
     29 N          59.6728   88.6734    8.5643 N.2     1  UNL1       -0.1510
     30 N          59.7585   87.4515    7.6983 N.2     1  UNL1       -0.1695
     31 C          60.6187   86.4441    8.4020 C.3     1  UNL1        0.1772
@<TRIPOS>BOND
     1    17    18    3
     2    18     1    1
     3     1     2   ar
     4     2     3   ar
     5     3     7    1
     6     7     8    2
     7     7     9    2
     8     7    10    1
     9    10    12    1
    10    12    13   ar
    11    13    14   ar
    12    14    15   ar
    13    15    16   ar
    14     3     4   ar
    15     4     5   ar
    16     5     6   ar
    17     6    19    1
    18    19    20    1
    19    20    21   ar
    20    21    22   ar
    21    22    23   ar
    22    23    24    1
    23    23    25   ar
    24    25    26   ar
    25    26    27    1
    26    27    28    2
    27    28    29    1
    28    29    30    2
    29    30    31    1
    30     6     1   ar
    31    26    20   ar
    32    31    27    1
    33    16    12   ar
    34    10    11    1
@<TRIPOS>MOLECULE
*****
 31 34 0 0 0
SMALL
GASTEIGER

@<TRIPOS>ATOM
      1 C          63.9522   87.8537   13.8871 C.ar    1  UNL1        0.1042
      2 C          64.5945   89.1516   14.2780 C.ar    1  UNL1        0.0335
      3 C          64.3480   90.3860   13.4623 C.ar    1  UNL1        0.1261
      4 C          63.4593   90.3225   12.2556 C.ar    1  UNL1        0.0234
      5 C          62.8171   89.0246   11.8646 C.ar    1  UNL1        0.0396
      6 C          63.0636   87.7902   12.6804 C.ar    1  UNL1        0.1549
      7 S          64.9903   91.6840   13.8533 S.O2    1  UNL1        0.0751
      8 O          65.0394   91.2293   15.2818 O.2     1  UNL1       -0.1499
      9 O          64.9412   92.1387   12.4247 O.2     1  UNL1       -0.1499
     10 N          65.6325   92.9819   14.2443 N.pl3   1  UNL1       -0.1925
     11 H          65.1062   93.8139   14.2355 H       1  UNL1        0.1758
     12 C          67.0767   93.0122   14.6487 C.ar    1  UNL1        0.1977
     13 N          67.6498   93.7598   15.8160 N.ar    1  UNL1       -0.1997
     14 C          69.1287   93.5099   15.8455 C.ar    1  UNL1        0.2082
     15 N          69.4694   92.6080   14.6964 N.ar    1  UNL1       -0.1840
     16 S          68.2012   92.3004   13.9567 S.2     1  UNL1        0.0508
     17 N          64.4451   85.3848   15.5186 N.1     1  UNL1       -0.1907
     18 C          64.1987   86.6193   14.7029 C.1     1  UNL1        0.1035
     19 O          62.4213   86.4922   12.2894 O.3     1  UNL1       -0.4528
     20 C          62.4425   86.0463   10.8574 C.ar    1  UNL1        0.1451
     21 C          61.9925   86.9811    9.7741 C.ar    1  UNL1        0.0383
     22 C          62.0137   86.5352    8.3420 C.ar    1  UNL1        0.0145
     23 C          62.4849   85.1545    7.9933 C.ar    1  UNL1        0.0579
     24 CL         62.5061   84.7086    6.5613 Cl      1  UNL1       -0.0822
     25 C          62.9349   84.2197    9.0767 C.ar    1  UNL1        0.0142
     26 C          62.9137   84.6656   10.5087 C.ar    1  UNL1        0.0349
     27 C          63.3637   83.7308   11.5920 C.2     1  UNL1        0.0278
     28 C          62.7106   83.5530   12.9307 C.2     1  UNL1        0.1195
     29 N          63.4891   82.5219   13.6929 N.2     1  UNL1       -0.1510
     30 N          64.6233   82.0625   12.8253 N.2     1  UNL1       -0.1695
     31 C          64.5457   82.8096   11.5269 C.3     1  UNL1        0.1772
@<TRIPOS>BOND
     1    17    18    3
     2    18     1    1
     3     1     2   ar
     4     2     3   ar
     5     3     7    1
     6     7     8    2
     7     7     9    2
     8     7    10    1
     9    10    12    1
    10    12    13   ar
    11    13    14   ar
    12    14    15   ar
    13    15    16   ar
    14     3     4   ar
    15     4     5   ar
    16     5     6   ar
    17     6    19    1
    18    19    20    1
    19    20    21   ar
    20    21    22   ar
    21    22    23   ar
    22    23    24    1
    23    23    25   ar
    24    25    26   ar
    25    26    27    1
    26    27    28    2
    27    28    29    1
    28    29    30    2
    29    30    31    1
    30     6     1   ar
    31    26    20   ar
    32    31    27    1
    33    16    12   ar
    34    10    11    1
@<TRIPOS>MOLECULE
*****
 31 34 0 0 0
SMALL
GASTEIGER

@<TRIPOS>ATOM
      1 C          62.4446   89.4107   11.1272 C.ar    1  UNL1        0.1042
      2 C          63.2282   90.6614   11.3946 C.ar    1  UNL1        0.0335
      3 C          64.1832   90.7155   12.5500 C.ar    1  UNL1        0.1261
      4 C          64.3545   89.5190   13.4382 C.ar    1  UNL1        0.0234
      5 C          63.5708   88.2683   13.1708 C.ar    1  UNL1        0.0396
      6 C          62.6159   88.2141   12.0153 C.ar    1  UNL1        0.1549
      7 S          64.9669   91.9664   12.8174 S.O2    1  UNL1        0.0751
      8 O          65.2260   92.1180   11.3478 O.2     1  UNL1       -0.1499
      9 O          64.7078   91.8147   14.2870 O.2     1  UNL1       -0.1499
     10 N          65.7506   93.2171   13.0846 N.pl3   1  UNL1       -0.1925
     11 H          65.4454   94.0774   12.7160 H       1  UNL1        0.1758
     12 C          66.9993   93.1570   13.9136 C.ar    1  UNL1        0.1977
     13 N          67.2778   93.9628   15.1478 N.ar    1  UNL1       -0.1997
     14 C          68.6394   93.5845   15.6509 C.ar    1  UNL1        0.2082
     15 N          69.2023   92.5449   14.7276 N.ar    1  UNL1       -0.1840
     16 S          68.1887   92.2807   13.6539 S.2     1  UNL1        0.0508
     17 N          60.5346   89.3025    8.8163 N.1     1  UNL1       -0.1907
     18 C          61.4896   89.3566    9.9718 C.1     1  UNL1        0.1035
     19 O          61.8322   86.9633   11.7480 O.3     1  UNL1       -0.4528
     20 C          62.4601   85.6209   11.9796 C.ar    1  UNL1        0.1451
     21 C          62.9076   85.2298   13.3568 C.ar    1  UNL1        0.0383
     22 C          63.5356   83.8873   13.5883 C.ar    1  UNL1        0.0145
     23 C          63.7160   82.9361   12.4426 C.ar    1  UNL1        0.0579
     24 CL         64.3440   81.5937   12.6742 Cl      1  UNL1       -0.0822
     25 C          63.2685   83.3273   11.0654 C.ar    1  UNL1        0.0142
     26 C          62.6406   84.6697   10.8339 C.ar    1  UNL1        0.0349
     27 C          62.1931   85.0608    9.4566 C.2     1  UNL1        0.0278
     28 C          62.9344   84.7949    8.1799 C.2     1  UNL1        0.1195
     29 N          62.1252   85.3564    7.0486 N.2     1  UNL1       -0.1510
     30 N          60.8838   85.9693    7.6260 N.2     1  UNL1       -0.1695
     31 C          60.9258   85.7866    9.1142 C.3     1  UNL1        0.1772
@<TRIPOS>BOND
     1    17    18    3
     2    18     1    1
     3     1     2   ar
     4     2     3   ar
     5     3     7    1
     6     7     8    2
     7     7     9    2
     8     7    10    1
     9    10    12    1
    10    12    13   ar
    11    13    14   ar
    12    14    15   ar
    13    15    16   ar
    14     3     4   ar
    15     4     5   ar
    16     5     6   ar
    17     6    19    1
    18    19    20    1
    19    20    21   ar
    20    21    22   ar
    21    22    23   ar
    22    23    24    1
    23    23    25   ar
    24    25    26   ar
    25    26    27    1
    26    27    28    2
    27    28    29    1
    28    29    30    2
    29    30    31    1
    30     6     1   ar
    31    26    20   ar
    32    31    27    1
    33    16    12   ar
    34    10    11    1
