@<TRIPOS>MOLECULE
*****
 34 36 0 0 0
SMALL
GASTEIGER

@<TRIPOS>ATOM
      1 C          63.7146   86.4129   15.3139 C.ar    1  UNL1        0.0528
      2 C          64.3533   87.5759   14.6144 C.ar    1  UNL1        0.0167
      3 C          64.2206   88.9577   15.1825 C.ar    1  UNL1        0.0505
      4 C          63.4491   89.1766   16.4501 C.ar    1  UNL1        0.0170
      5 C          62.8104   88.0136   17.1497 C.ar    1  UNL1        0.0307
      6 C          62.9431   86.6318   16.5815 C.ar    1  UNL1        0.1402
      7 F          62.3043   85.4687   17.2811 F       1  UNL1       -0.2044
      8 C          64.1001   84.7419   16.1958 C.3     1  UNL1        0.0607
      9 C          63.8472   85.0309   14.7458 C.3     1  UNL1        0.2223
     10 C          63.5483   85.7999   13.4931 C.3     1  UNL1        0.1959
     11 O          63.4699   85.0866   12.1759 O.3     1  UNL1       -0.3357
     12 C          63.6904   83.6043   12.1114 C.3     1  UNL1        0.2740
     13 C          63.8231   82.2224   11.5434 C.3     1  UNL1        0.0512
     14 C          63.9893   82.8353   13.3641 C.2     1  UNL1        0.3217
     15 N          64.2098   81.3530   13.2996 N.pl3   1  UNL1       -0.2480
     16 N          64.0678   83.5486   14.6813 N.2     1  UNL1       -0.0692
     17 H          64.1584   80.8848   12.4351 H       1  UNL1        0.2882
     18 H          64.4061   80.8483   14.1218 H       1  UNL1        0.2882
     19 C          63.4375   83.8933   10.6614 C.3     1  UNL1        0.4305
     20 F          63.1846   84.1824    9.2114 F       1  UNL1       -0.1670
     21 F          64.7662   83.2924   10.3099 F       1  UNL1       -0.1670
     22 F          62.1088   84.4941   11.0130 F       1  UNL1       -0.1670
     23 N          64.8594   90.1208   14.4830 N.am    1  UNL1       -0.2791
     24 C          64.1999   90.7265   13.2796 C.2     1  UNL1        0.2672
     25 O          62.9016   90.1691   12.7757 O.2     1  UNL1       -0.2682
     26 H          65.7115   90.4866   14.8137 H       1  UNL1        0.1552
     27 C          64.8386   91.8895   12.5800 C.ar    1  UNL1        0.1348
     28 C          64.6919   92.0444   11.0953 C.ar    1  UNL1        0.0245
     29 C          65.3306   93.2075   10.3958 C.ar    1  UNL1        0.0135
     30 C          66.1161   94.2156   11.1810 C.ar    1  UNL1        0.0876
     31 C          66.2629   94.0608   12.6657 C.ar    1  UNL1        0.1092
     32 N          65.6242   92.8977   13.3653 N.ar    1  UNL1       -0.2385
     33 C          66.7548   95.3787   10.4815 C.1     1  UNL1        0.1020
     34 N          67.3936   96.5418    9.7820 N.1     1  UNL1       -0.1908
@<TRIPOS>BOND
     1     9     8    1
     2     9     1    1
     3     1     2   ar
     4     2     3   ar
     5     3    23    1
     6    23    24   am
     7    24    25    2
     8    24    27    1
     9    27    28   ar
    10    28    29   ar
    11    29    30   ar
    12    30    33    1
    13    33    34    3
    14    30    31   ar
    15    31    32   ar
    16     3     4   ar
    17     4     5   ar
    18     5     6   ar
    19     6     7    1
    20     9    10    1
    21    10    11    1
    22    11    12    1
    23    12    13    1
    24    12    19    1
    25    19    20    1
    26    19    21    1
    27    19    22    1
    28    12    14    1
    29    14    15    1
    30    14    16    2
    31    16     9    1
    32     6     1   ar
    33    32    27   ar
    34    23    26    1
    35    15    17    1
    36    15    18    1
@<TRIPOS>MOLECULE
*****
 34 36 0 0 0
SMALL
GASTEIGER

@<TRIPOS>ATOM
      1 C          63.9287   89.1997   14.7422 C.ar    1  UNL1        0.0528
      2 C          63.9388   87.8149   14.1659 C.ar    1  UNL1        0.0167
      3 C          63.5587   86.6435   15.0221 C.ar    1  UNL1        0.0505
      4 C          63.1686   86.8568   16.4547 C.ar    1  UNL1        0.0170
      5 C          63.1585   88.2416   17.0310 C.ar    1  UNL1        0.0307
      6 C          63.5385   89.4131   16.1748 C.ar    1  UNL1        0.1402
      7 F          63.5284   90.7979   16.7511 F       1  UNL1       -0.2044
      8 C          63.0322   89.9607   13.2138 C.3     1  UNL1        0.0607
      9 C          64.3088   90.3713   13.8860 C.3     1  UNL1        0.2223
     10 C          65.4533   90.3750   14.8554 C.3     1  UNL1        0.1959
     11 O          66.5346   91.4077   14.7353 O.3     1  UNL1       -0.3357
     12 C          66.4713   92.4366   13.6456 C.3     1  UNL1        0.2740
     13 C          66.8514   93.6081   12.7894 C.3     1  UNL1        0.0512
     14 C          65.3268   92.4329   12.6762 C.2     1  UNL1        0.3217
     15 N          65.2635   93.4618   11.5865 N.pl3   1  UNL1       -0.2480
     16 N          64.2455   91.4002   12.7963 N.2     1  UNL1       -0.0692
     17 H          65.9732   94.1395   11.5076 H       1  UNL1        0.2882
     18 H          64.5123   93.4593   10.9502 H       1  UNL1        0.2882
     19 C          67.7479   92.8472   14.3178 C.3     1  UNL1        0.4305
     20 F          69.0245   93.2578   14.9899 F       1  UNL1       -0.1670
     21 F          67.0223   93.9583   15.0171 F       1  UNL1       -0.1670
     22 F          68.4734   91.7362   13.6184 F       1  UNL1       -0.1670
     23 N          63.5688   85.2586   14.4458 N.am    1  UNL1       -0.2791
     24 C          62.9108   84.9913   13.1246 C.2     1  UNL1        0.2672
     25 O          62.2426   86.1088   12.3798 O.2     1  UNL1       -0.2682
     26 H          64.0073   84.5251   14.9347 H       1  UNL1        0.1552
     27 C          62.9208   83.6065   12.5483 C.ar    1  UNL1        0.1348
     28 C          63.4434   83.3751   11.1614 C.ar    1  UNL1        0.0245
     29 C          63.4535   81.9902   10.5851 C.ar    1  UNL1        0.0135
     30 C          62.9409   80.8368   11.3956 C.ar    1  UNL1        0.0876
     31 C          62.4184   81.0682   12.7825 C.ar    1  UNL1        0.1092
     32 N          62.4083   82.4530   13.3588 N.ar    1  UNL1       -0.2385
     33 C          62.9510   79.4520   10.8193 C.1     1  UNL1        0.1020
     34 N          62.9610   78.0671   10.2429 N.1     1  UNL1       -0.1908
@<TRIPOS>BOND
     1     9     8    1
     2     9     1    1
     3     1     2   ar
     4     2     3   ar
     5     3    23    1
     6    23    24   am
     7    24    25    2
     8    24    27    1
     9    27    28   ar
    10    28    29   ar
    11    29    30   ar
    12    30    33    1
    13    33    34    3
    14    30    31   ar
    15    31    32   ar
    16     3     4   ar
    17     4     5   ar
    18     5     6   ar
    19     6     7    1
    20     9    10    1
    21    10    11    1
    22    11    12    1
    23    12    13    1
    24    12    19    1
    25    19    20    1
    26    19    21    1
    27    19    22    1
    28    12    14    1
    29    14    15    1
    30    14    16    2
    31    16     9    1
    32     6     1   ar
    33    32    27   ar
    34    23    26    1
    35    15    17    1
    36    15    18    1
@<TRIPOS>MOLECULE
*****
 34 36 0 0 0
SMALL
GASTEIGER

@<TRIPOS>ATOM
      1 C          63.9648   86.1999   15.2596 C.ar    1  UNL1        0.0528
      2 C          64.4838   87.4784   14.6714 C.ar    1  UNL1        0.0167
      3 C          64.1557   88.7901   15.3207 C.ar    1  UNL1        0.0505
      4 C          63.3087   88.8234   16.5582 C.ar    1  UNL1        0.0170
      5 C          62.7897   87.5448   17.1464 C.ar    1  UNL1        0.0307
      6 C          63.1178   86.2331   16.4971 C.ar    1  UNL1        0.1402
      7 F          62.5988   84.9545   17.0853 F       1  UNL1       -0.2044
      8 C          65.6498   85.5277   14.6054 C.3     1  UNL1        0.0607
      9 C          64.2929   84.8881   14.6103 C.3     1  UNL1        0.2223
     10 C          62.8222   84.7041   14.8406 C.3     1  UNL1        0.1959
     11 O          62.1508   83.4304   14.4199 O.3     1  UNL1       -0.3357
     12 C          62.9501   82.3407   13.7689 C.3     1  UNL1        0.2740
     13 C          63.2782   81.0290   13.1197 C.3     1  UNL1        0.0512
     14 C          64.4208   82.5247   13.5386 C.2     1  UNL1        0.3217
     15 N          65.2201   81.4351   12.8876 N.pl3   1  UNL1       -0.2480
     16 N          65.0923   83.7984   13.9593 N.2     1  UNL1       -0.0692
     17 H          64.7795   80.5991   12.6116 H       1  UNL1        0.2882
     18 H          66.1854   81.5558   12.7365 H       1  UNL1        0.2882
     19 C          61.5933   81.7011   13.7738 C.3     1  UNL1        0.4305
     20 F          60.2364   81.0615   13.7786 F       1  UNL1       -0.1670
     21 F          61.4567   82.0018   15.2370 F       1  UNL1       -0.1670
     22 F          61.7298   81.4005   12.3106 F       1  UNL1       -0.1670
     23 N          64.6747   90.0688   14.7325 N.am    1  UNL1       -0.2791
     24 C          64.3721   90.4146   13.3046 C.2     1  UNL1        0.2672
     25 O          63.5506   89.4817   12.4649 O.2     1  UNL1       -0.2682
     26 H          65.2138   90.6810   15.2837 H       1  UNL1        0.1552
     27 C          64.8911   91.6931   12.7164 C.ar    1  UNL1        0.1348
     28 C          64.6623   91.9985   11.2658 C.ar    1  UNL1        0.0245
     29 C          65.1813   93.2771   10.6776 C.ar    1  UNL1        0.0135
     30 C          65.9289   94.2503   11.5401 C.ar    1  UNL1        0.0876
     31 C          66.1577   93.9449   12.9907 C.ar    1  UNL1        0.1092
     32 N          65.6388   92.6664   13.5789 N.ar    1  UNL1       -0.2385
     33 C          66.4479   95.5288   10.9519 C.1     1  UNL1        0.1020
     34 N          66.9668   96.8074   10.3636 N.1     1  UNL1       -0.1908
@<TRIPOS>BOND
     1     9     8    1
     2     9     1    1
     3     1     2   ar
     4     2     3   ar
     5     3    23    1
     6    23    24   am
     7    24    25    2
     8    24    27    1
     9    27    28   ar
    10    28    29   ar
    11    29    30   ar
    12    30    33    1
    13    33    34    3
    14    30    31   ar
    15    31    32   ar
    16     3     4   ar
    17     4     5   ar
    18     5     6   ar
    19     6     7    1
    20     9    10    1
    21    10    11    1
    22    11    12    1
    23    12    13    1
    24    12    19    1
    25    19    20    1
    26    19    21    1
    27    19    22    1
    28    12    14    1
    29    14    15    1
    30    14    16    2
    31    16     9    1
    32     6     1   ar
    33    32    27   ar
    34    23    26    1
    35    15    17    1
    36    15    18    1
@<TRIPOS>MOLECULE
*****
 34 36 0 0 0
SMALL
GASTEIGER

@<TRIPOS>ATOM
      1 C          64.0064   88.7655   14.9560 C.ar    1  UNL1        0.0528
      2 C          64.0280   87.3908   14.3565 C.ar    1  UNL1        0.0167
      3 C          63.5763   86.2121   15.1667 C.ar    1  UNL1        0.0505
      4 C          63.1029   86.4081   16.5765 C.ar    1  UNL1        0.0170
      5 C          63.0813   87.7829   17.1760 C.ar    1  UNL1        0.0307
      6 C          63.5330   88.9616   16.3658 C.ar    1  UNL1        0.1402
      7 F          63.5114   90.3364   16.9653 F       1  UNL1       -0.2044
      8 C          65.2705   90.1560   15.3890 C.3     1  UNL1        0.0607
      9 C          64.4582   89.9443   14.1458 C.3     1  UNL1        0.2223
     10 C          63.4891   89.3233   13.1841 C.3     1  UNL1        0.1959
     11 O          63.2538   89.9545   11.8438 O.3     1  UNL1       -0.3357
     12 C          63.9877   91.2068   11.4654 C.3     1  UNL1        0.2740
     13 C          64.4395   92.3855   10.6552 C.3     1  UNL1        0.0512
     14 C          64.9568   91.8278   12.4271 C.2     1  UNL1        0.3217
     15 N          65.6907   93.0801   12.0487 N.pl3   1  UNL1       -0.2480
     16 N          65.1921   91.1966   13.7674 N.2     1  UNL1       -0.0692
     17 H          65.5363   93.4944   11.1691 H       1  UNL1        0.2882
     18 H          66.3268   93.4878   12.6800 H       1  UNL1        0.2882
     19 C          63.1754   90.9951   10.2222 C.3     1  UNL1        0.4305
     20 F          62.3631   90.7834    8.9790 F       1  UNL1       -0.1670
     21 F          62.8810   89.5891   10.6540 F       1  UNL1       -0.1670
     22 F          63.4698   92.4011    9.7905 F       1  UNL1       -0.1670
     23 N          63.5979   84.8372   14.5672 N.am    1  UNL1       -0.2791
     24 C          62.8344   84.5565   13.3069 C.2     1  UNL1        0.2672
     25 O          62.0492   85.6506   12.6462 O.2     1  UNL1       -0.2682
     26 H          64.1132   84.1191   15.0008 H       1  UNL1        0.1552
     27 C          62.8559   83.1817   12.7074 C.ar    1  UNL1        0.1348
     28 C          63.2764   82.9925   11.2800 C.ar    1  UNL1        0.0245
     29 C          63.2980   81.6176   10.6805 C.ar    1  UNL1        0.0135
     30 C          62.8991   80.4321   11.5083 C.ar    1  UNL1        0.0876
     31 C          62.4785   80.6213   12.9357 C.ar    1  UNL1        0.1092
     32 N          62.4570   81.9961   13.5352 N.ar    1  UNL1       -0.2385
     33 C          62.9206   79.0573   10.9088 C.1     1  UNL1        0.1020
     34 N          62.9422   77.6825   10.3092 N.1     1  UNL1       -0.1908
@<TRIPOS>BOND
     1     9     8    1
     2     9     1    1
     3     1     2   ar
     4     2     3   ar
     5     3    23    1
     6    23    24   am
     7    24    25    2
     8    24    27    1
     9    27    28   ar
    10    28    29   ar
    11    29    30   ar
    12    30    33    1
    13    33    34    3
    14    30    31   ar
    15    31    32   ar
    16     3     4   ar
    17     4     5   ar
    18     5     6   ar
    19     6     7    1
    20     9    10    1
    21    10    11    1
    22    11    12    1
    23    12    13    1
    24    12    19    1
    25    19    20    1
    26    19    21    1
    27    19    22    1
    28    12    14    1
    29    14    15    1
    30    14    16    2
    31    16     9    1
    32     6     1   ar
    33    32    27   ar
    34    23    26    1
    35    15    17    1
    36    15    18    1
@<TRIPOS>MOLECULE
*****
 34 36 0 0 0
SMALL
GASTEIGER

@<TRIPOS>ATOM
      1 C          63.0793   89.9690   11.6415 C.ar    1  UNL1        0.0528
      2 C          63.0018   88.4951   11.9088 C.ar    1  UNL1        0.0167
      3 C          62.1917   87.6110   11.0077 C.ar    1  UNL1        0.0505
      4 C          61.4591   88.2008    9.8393 C.ar    1  UNL1        0.0170
      5 C          61.5365   89.6747    9.5719 C.ar    1  UNL1        0.0307
      6 C          62.3466   90.5588   10.4730 C.ar    1  UNL1        0.1402
      7 F          62.4241   92.0328   10.2057 F       1  UNL1       -0.2044
      8 C          63.1686   90.0277   13.5669 C.3     1  UNL1        0.0607
      9 C          63.8894   90.8532   12.5426 C.3     1  UNL1        0.2223
     10 C          64.3289   91.3715   11.2054 C.3     1  UNL1        0.1959
     11 O          65.3281   92.4873   11.1250 O.3     1  UNL1       -0.3357
     12 C          65.8879   93.0848   12.3819 C.3     1  UNL1        0.2740
     13 C          66.6980   93.9689   13.2830 C.3     1  UNL1        0.0512
     14 C          65.4484   92.5665   13.7191 C.2     1  UNL1        0.3217
     15 N          66.0082   93.1640   14.9760 N.pl3   1  UNL1       -0.2480
     16 N          64.4492   91.4506   13.7995 N.2     1  UNL1       -0.0692
     17 H          66.6640   93.8963   14.9232 H       1  UNL1        0.2882
     18 H          65.7198   92.8237   15.8536 H       1  UNL1        0.2882
     19 C          66.6087   93.9102   11.3576 C.3     1  UNL1        0.4305
     20 F          67.3295   94.7356   10.3333 F       1  UNL1       -0.1670
     21 F          65.9522   95.1481   11.8931 F       1  UNL1       -0.1670
     22 F          67.2652   92.6724   10.8221 F       1  UNL1       -0.1670
     23 N          62.1143   86.1370   11.2750 N.am    1  UNL1       -0.2791
     24 C          62.8183   85.5523   12.4635 C.2     1  UNL1        0.2672
     25 O          63.5999   86.4416   13.3846 O.2     1  UNL1       -0.2682
     26 H          61.6013   85.5533   10.6705 H       1  UNL1        0.1552
     27 C          62.7409   84.0784   12.7309 C.ar    1  UNL1        0.1348
     28 C          62.9578   83.1011   11.6138 C.ar    1  UNL1        0.0245
     29 C          62.8803   81.6271   11.8812 C.ar    1  UNL1        0.0135
     30 C          62.5860   81.1304   13.2656 C.ar    1  UNL1        0.0876
     31 C          62.3691   82.1077   14.3827 C.ar    1  UNL1        0.1092
     32 N          62.4465   83.5817   14.1154 N.ar    1  UNL1       -0.2385
     33 C          62.5085   79.6565   13.5330 C.1     1  UNL1        0.1020
     34 N          62.4311   78.1825   13.8004 N.1     1  UNL1       -0.1908
@<TRIPOS>BOND
     1     9     8    1
     2     9     1    1
     3     1     2   ar
     4     2     3   ar
     5     3    23    1
     6    23    24   am
     7    24    25    2
     8    24    27    1
     9    27    28   ar
    10    28    29   ar
    11    29    30   ar
    12    30    33    1
    13    33    34    3
    14    30    31   ar
    15    31    32   ar
    16     3     4   ar
    17     4     5   ar
    18     5     6   ar
    19     6     7    1
    20     9    10    1
    21    10    11    1
    22    11    12    1
    23    12    13    1
    24    12    19    1
    25    19    20    1
    26    19    21    1
    27    19    22    1
    28    12    14    1
    29    14    15    1
    30    14    16    2
    31    16     9    1
    32     6     1   ar
    33    32    27   ar
    34    23    26    1
    35    15    17    1
    36    15    18    1
@<TRIPOS>MOLECULE
*****
 34 36 0 0 0
SMALL
GASTEIGER

@<TRIPOS>ATOM
      1 C          63.5196   90.0931   12.7365 C.ar    1  UNL1        0.0528
      2 C          63.3058   88.6104   12.8125 C.ar    1  UNL1        0.0167
      3 C          62.8238   87.8594   11.6068 C.ar    1  UNL1        0.0505
      4 C          62.5557   88.5912   10.3252 C.ar    1  UNL1        0.0170
      5 C          62.7695   90.0739   10.2492 C.ar    1  UNL1        0.0307
      6 C          63.2514   90.8248   11.4549 C.ar    1  UNL1        0.1402
      7 F          63.4652   92.3076   11.3789 F       1  UNL1       -0.2044
      8 C          62.5782   90.5930   14.3436 C.3     1  UNL1        0.0607
      9 C          64.0016   90.8441   13.9422 C.3     1  UNL1        0.2223
     10 C          65.2575   90.8345   13.1222 C.3     1  UNL1        0.1959
     11 O          66.5011   91.4886   13.6471 O.3     1  UNL1       -0.3357
     12 C          66.4887   92.1524   14.9922 C.3     1  UNL1        0.2740
     13 C          66.9706   92.9034   16.1979 C.3     1  UNL1        0.0512
     14 C          65.2328   92.1621   15.8123 C.2     1  UNL1        0.3217
     15 N          65.2204   92.8259   17.1574 N.pl3   1  UNL1       -0.2480
     16 N          63.9892   91.5079   15.2873 N.2     1  UNL1       -0.0692
     17 H          66.0366   93.2552   17.5020 H       1  UNL1        0.2882
     18 H          64.3961   92.8322   17.6957 H       1  UNL1        0.2882
     19 C          67.9120   92.4036   14.5909 C.3     1  UNL1        0.4305
     20 F          69.3354   92.6548   14.1895 F       1  UNL1       -0.1670
     21 F          67.4387   93.1853   13.4013 F       1  UNL1       -0.1670
     22 F          68.3853   91.6220   15.7804 F       1  UNL1       -0.1670
     23 N          62.6100   86.3766   11.6827 N.am    1  UNL1       -0.2791
     24 C          63.1572   85.5984   12.8424 C.2     1  UNL1        0.2672
     25 O          63.9183   86.3030   13.9262 O.2     1  UNL1       -0.2682
     26 H          62.1105   85.9142   10.9714 H       1  UNL1        0.1552
     27 C          62.9434   84.1157   12.9184 C.ar    1  UNL1        0.1348
     28 C          63.2040   83.2578   11.7159 C.ar    1  UNL1        0.0245
     29 C          62.9902   81.7750   11.7919 C.ar    1  UNL1        0.0135
     30 C          62.5158   81.1502   13.0704 C.ar    1  UNL1        0.0876
     31 C          62.2552   82.0081   14.2729 C.ar    1  UNL1        0.1092
     32 N          62.4690   83.4908   14.1969 N.ar    1  UNL1       -0.2385
     33 C          62.3020   79.6675   13.1464 C.1     1  UNL1        0.1020
     34 N          62.0883   78.1847   13.2224 N.1     1  UNL1       -0.1908
@<TRIPOS>BOND
     1     9     8    1
     2     9     1    1
     3     1     2   ar
     4     2     3   ar
     5     3    23    1
     6    23    24   am
     7    24    25    2
     8    24    27    1
     9    27    28   ar
    10    28    29   ar
    11    29    30   ar
    12    30    33    1
    13    33    34    3
    14    30    31   ar
    15    31    32   ar
    16     3     4   ar
    17     4     5   ar
    18     5     6   ar
    19     6     7    1
    20     9    10    1
    21    10    11    1
    22    11    12    1
    23    12    13    1
    24    12    19    1
    25    19    20    1
    26    19    21    1
    27    19    22    1
    28    12    14    1
    29    14    15    1
    30    14    16    2
    31    16     9    1
    32     6     1   ar
    33    32    27   ar
    34    23    26    1
    35    15    17    1
    36    15    18    1
