@<TRIPOS>MOLECULE
*****
 44 48 0 0 0
SMALL
GASTEIGER

@<TRIPOS>ATOM
      1 C          64.3163   84.2663   14.3677 C.ar    1  UNL1        0.1392
      2 C          64.7890   85.4086   15.2171 C.ar    1  UNL1        0.0384
      3 C          64.4157   86.8159   14.8565 C.ar    1  UNL1        0.0203
      4 C          63.5696   87.0809   13.6466 C.ar    1  UNL1        0.0606
      5 C          63.0969   85.9385   12.7972 C.ar    1  UNL1        0.0256
      6 C          63.4702   84.5312   13.1578 C.ar    1  UNL1        0.0389
      7 C          62.2812   86.5038   11.6724 C.ar    1  UNL1        0.0383
      8 C          62.2498   87.9955   11.8267 C.ar    1  UNL1        0.0433
      9 N          63.0461   88.3522   13.0468 N.ar    1  UNL1       -0.3260
     10 O          64.6896   82.8589   14.7282 O.3     1  UNL1       -0.4690
     11 C          63.6677   81.7648   14.6361 C.3     1  UNL1        0.2508
     12 C          62.5968   79.0951    9.3705 C.3     1  UNL1        0.0327
     13 C          62.8645   79.7626   10.6870 C.ar    1  UNL1       -0.0027
     14 C          63.4828   81.1287   10.7232 C.ar    1  UNL1       -0.0014
     15 C          63.7505   81.7961   12.0395 C.ar    1  UNL1        0.0181
     16 C          63.3999   81.0974   13.3197 C.ar    1  UNL1        0.1026
     17 N          62.7816   79.7312   13.2835 N.ar    1  UNL1       -0.2448
     18 C          62.5139   79.0638   11.9671 C.ar    1  UNL1        0.0943
     19 S          61.6140   85.7157   10.5845 S.3     1  UNL1       -0.1142
     20 C          62.2650   85.5953    9.2384 C.3     1  UNL1        0.0434
     21 C          63.3026   84.6826    9.8218 C.3     1  UNL1        0.0112
     22 C          61.2274   86.5081    8.6550 C.3     1  UNL1        0.0112
     23 C          62.9160   85.4750    7.8924 C.3     1  UNL1        0.0112
     24 C          61.5457   88.9610   10.9199 C.3     1  UNL1        0.0495
     25 C          60.2537   89.5891   11.3513 C.3     1  UNL1        0.0376
     26 C          59.8571   88.3096   12.0263 C.3     1  UNL1        0.0059
     27 C          60.6503   90.8686   10.6762 C.3     1  UNL1        0.0059
     28 C          58.9616   90.2172   11.7826 C.2     1  UNL1        0.0500
     29 O          57.9372   89.3998   12.5122 O.co2   1  UNL1       -0.5492
     30 O          58.6940   91.6627   11.4843 O.co2   1  UNL1       -0.5492
     31 C          63.2782   89.7370   13.5744 C.3     1  UNL1        0.1324
     32 C          63.9845   90.7538   12.7275 C.ar    1  UNL1        0.0004
     33 C          63.6155   90.9128   11.2823 C.ar    1  UNL1       -0.0023
     34 C          64.3218   91.9295   10.4353 C.ar    1  UNL1        0.0012
     35 C          65.3972   92.7872   11.0337 C.ar    1  UNL1        0.0176
     36 C          65.7662   92.6282   12.4788 C.ar    1  UNL1        0.0012
     37 C          65.0598   91.6115   13.3258 C.ar    1  UNL1       -0.0023
     38 C          66.1036   93.8040   10.1867 C.ar    1  UNL1        0.0813
     39 C          67.2904   93.4000    9.3632 C.ar    1  UNL1        0.0188
     40 C          67.9968   94.4167    8.5162 C.ar    1  UNL1       -0.0012
     41 C          67.5163   95.8375    8.4928 C.ar    1  UNL1       -0.0027
     42 C          68.2226   96.8543    7.6459 C.3     1  UNL1        0.0327
     43 C          66.3295   96.2415    9.3163 C.ar    1  UNL1        0.0945
     44 N          65.6231   95.2247   10.1633 N.ar    1  UNL1       -0.2442
@<TRIPOS>UNITY_ATOM_ATTR
29 1
charge -1
@<TRIPOS>BOND
     1    12    13    1
     2    13    14   ar
     3    14    15   ar
     4    15    16   ar
     5    16    11    1
     6    11    10    1
     7    10     1    1
     8     1     2   ar
     9     2     3   ar
    10     3     4   ar
    11     4     5   ar
    12     5     6   ar
    13     5     7   ar
    14     7    19    1
    15    19    20    1
    16    20    21    1
    17    20    22    1
    18    20    23    1
    19     7     8   ar
    20     8    24    1
    21    24    25    1
    22    25    26    1
    23    25    27    1
    24    25    28    1
    25    28    29   ar
    26    28    30   ar
    27     8     9   ar
    28     9    31    1
    29    31    32    1
    30    32    33   ar
    31    33    34   ar
    32    34    35   ar
    33    35    38    1
    34    38    39   ar
    35    39    40   ar
    36    40    41   ar
    37    41    42    1
    38    41    43   ar
    39    43    44   ar
    40    35    36   ar
    41    36    37   ar
    42    16    17   ar
    43    17    18   ar
    44    18    13   ar
    45     6     1   ar
    46    37    32   ar
    47     9     4   ar
    48    44    38   ar
@<TRIPOS>MOLECULE
*****
 44 48 0 0 0
SMALL
GASTEIGER

@<TRIPOS>ATOM
      1 C          64.1044   90.5572   13.0854 C.ar    1  UNL1        0.1392
      2 C          63.4662   90.4034   11.7367 C.ar    1  UNL1        0.0384
      3 C          62.9744   89.0590   11.2887 C.ar    1  UNL1        0.0203
      4 C          63.1207   87.8685   12.1894 C.ar    1  UNL1        0.0606
      5 C          63.7590   88.0224   13.5381 C.ar    1  UNL1        0.0256
      6 C          64.2508   89.3667   13.9861 C.ar    1  UNL1        0.0389
      7 C          63.7665   86.6780   14.2034 C.ar    1  UNL1        0.0383
      8 C          63.1329   85.6933   13.2659 C.ar    1  UNL1        0.0433
      9 N          62.7338   86.4290   12.0212 N.ar    1  UNL1       -0.3260
     10 O          64.5963   91.9017   13.5334 O.3     1  UNL1       -0.4690
     11 C          66.0292   92.2874   13.3140 C.3     1  UNL1        0.2508
     12 C          67.5694   95.4779    8.4716 C.3     1  UNL1        0.0327
     13 C          67.1843   94.6802    9.6822 C.ar    1  UNL1       -0.0027
     14 C          67.4133   93.1980    9.7078 C.ar    1  UNL1       -0.0014
     15 C          67.0283   92.4004   10.9183 C.ar    1  UNL1        0.0181
     16 C          66.4142   93.0850   12.1033 C.ar    1  UNL1        0.1026
     17 N          66.1852   94.5672   12.0778 N.ar    1  UNL1       -0.2448
     18 C          66.5703   95.3648   10.8672 C.ar    1  UNL1        0.0943
     19 S          64.3118   86.3721   15.5668 S.3     1  UNL1       -0.1142
     20 C          63.3899   86.3194   16.7489 C.3     1  UNL1        0.0434
     21 C          63.3508   87.8184   16.7853 C.3     1  UNL1        0.0112
     22 C          63.4290   84.8203   16.7125 C.3     1  UNL1        0.0112
     23 C          62.4679   86.2666   17.9310 C.3     1  UNL1        0.0112
     24 C          62.9334   84.2297   13.5273 C.3     1  UNL1        0.0495
     25 C          63.3717   83.2194   12.5089 C.3     1  UNL1        0.0376
     26 C          61.9942   82.6256   12.5052 C.3     1  UNL1        0.0059
     27 C          64.7491   83.8133   12.5125 C.3     1  UNL1        0.0059
     28 C          63.8099   82.2091   11.4904 C.2     1  UNL1        0.0500
     29 O          63.1643   80.8558   11.4504 O.co2   1  UNL1       -0.5492
     30 O          64.8939   82.5522   10.5120 O.co2   1  UNL1       -0.5492
     31 C          62.0651   85.8305   10.8193 C.3     1  UNL1        0.1324
     32 C          61.3281   86.7114    9.8545 C.ar    1  UNL1        0.0004
     33 C          61.2589   86.3408    8.4027 C.ar    1  UNL1       -0.0023
     34 C          60.5219   87.2218    7.4380 C.ar    1  UNL1        0.0012
     35 C          59.8540   88.4734    7.9253 C.ar    1  UNL1        0.0176
     36 C          59.9232   88.8440    9.3770 C.ar    1  UNL1        0.0012
     37 C          60.6602   87.9630   10.3418 C.ar    1  UNL1       -0.0023
     38 C          59.1169   89.3544    6.9606 C.ar    1  UNL1        0.0813
     39 C          59.8736   90.3236    6.1014 C.ar    1  UNL1        0.0188
     40 C          59.1365   91.2046    5.1367 C.ar    1  UNL1       -0.0012
     41 C          57.6429   91.1164    5.0311 C.ar    1  UNL1       -0.0027
     42 C          56.9057   91.9973    4.0664 C.3     1  UNL1        0.0327
     43 C          56.8862   90.1472    5.8903 C.ar    1  UNL1        0.0945
     44 N          57.6233   89.2662    6.8550 N.ar    1  UNL1       -0.2442
@<TRIPOS>UNITY_ATOM_ATTR
29 1
charge -1
@<TRIPOS>BOND
     1    12    13    1
     2    13    14   ar
     3    14    15   ar
     4    15    16   ar
     5    16    11    1
     6    11    10    1
     7    10     1    1
     8     1     2   ar
     9     2     3   ar
    10     3     4   ar
    11     4     5   ar
    12     5     6   ar
    13     5     7   ar
    14     7    19    1
    15    19    20    1
    16    20    21    1
    17    20    22    1
    18    20    23    1
    19     7     8   ar
    20     8    24    1
    21    24    25    1
    22    25    26    1
    23    25    27    1
    24    25    28    1
    25    28    29   ar
    26    28    30   ar
    27     8     9   ar
    28     9    31    1
    29    31    32    1
    30    32    33   ar
    31    33    34   ar
    32    34    35   ar
    33    35    38    1
    34    38    39   ar
    35    39    40   ar
    36    40    41   ar
    37    41    42    1
    38    41    43   ar
    39    43    44   ar
    40    35    36   ar
    41    36    37   ar
    42    16    17   ar
    43    17    18   ar
    44    18    13   ar
    45     6     1   ar
    46    37    32   ar
    47     9     4   ar
    48    44    38   ar
@<TRIPOS>MOLECULE
*****
 44 48 0 0 0
SMALL
GASTEIGER

@<TRIPOS>ATOM
      1 C          63.9371   90.6025   12.8637 C.ar    1  UNL1        0.1392
      2 C          62.8530   90.8337   11.8531 C.ar    1  UNL1        0.0384
      3 C          62.0363   89.6796   11.3521 C.ar    1  UNL1        0.0203
      4 C          62.3038   88.2944   11.8616 C.ar    1  UNL1        0.0606
      5 C          63.3879   88.0632   12.8721 C.ar    1  UNL1        0.0256
      6 C          64.2046   89.2172   13.3731 C.ar    1  UNL1        0.0389
      7 C          63.4212   86.5974   13.1890 C.ar    1  UNL1        0.0383
      8 C          62.3577   85.9227   12.3742 C.ar    1  UNL1        0.0433
      9 N          61.6671   86.9714   11.5539 N.ar    1  UNL1       -0.3260
     10 O          64.7539   91.7566   13.3648 O.3     1  UNL1       -0.4690
     11 C          66.1770   91.9177   12.9191 C.3     1  UNL1        0.2508
     12 C          67.5276   95.7805    8.5310 C.3     1  UNL1        0.0327
     13 C          67.1899   94.8148    9.6281 C.ar    1  UNL1       -0.0027
     14 C          67.5829   93.3725    9.5049 C.ar    1  UNL1       -0.0014
     15 C          67.2453   92.4068   10.6019 C.ar    1  UNL1        0.0181
     16 C          66.5147   92.8834   11.8221 C.ar    1  UNL1        0.1026
     17 N          66.1217   94.3258   11.9453 N.ar    1  UNL1       -0.2448
     18 C          66.4593   95.2915   10.8483 C.ar    1  UNL1        0.0943
     19 S          64.3543   85.9245   14.1515 S.3     1  UNL1       -0.1142
     20 C          63.9039   85.6315   15.5520 C.3     1  UNL1        0.0434
     21 C          63.9801   84.1604   15.2686 C.3     1  UNL1        0.0112
     22 C          63.8278   87.1025   15.8354 C.3     1  UNL1        0.0112
     23 C          63.4535   85.3384   16.9525 C.3     1  UNL1        0.0112
     24 C          62.0406   84.4565   12.3791 C.3     1  UNL1        0.0495
     25 C          62.8731   83.5065   11.5702 C.3     1  UNL1        0.0376
     26 C          62.5924   82.4164   12.5616 C.3     1  UNL1        0.0059
     27 C          63.1538   84.5966   10.5788 C.3     1  UNL1        0.0059
     28 C          63.7056   82.5564   10.7613 C.2     1  UNL1        0.0500
     29 O          65.0519   82.9825   10.2555 O.co2   1  UNL1       -0.5492
     30 O          63.1917   81.1801   10.4581 O.co2   1  UNL1       -0.5492
     31 C          60.5380   86.7383   10.5943 C.3     1  UNL1        0.1324
     32 C          60.3534   87.6500    9.4175 C.ar    1  UNL1        0.0004
     33 C          60.1709   87.0747    8.0443 C.ar    1  UNL1       -0.0023
     34 C          59.9864   87.9864    6.8676 C.ar    1  UNL1        0.0012
     35 C          59.9843   89.4735    7.0642 C.ar    1  UNL1        0.0176
     36 C          60.1668   90.0488    8.4373 C.ar    1  UNL1        0.0012
     37 C          60.3514   89.1370    9.6141 C.ar    1  UNL1       -0.0023
     38 C          59.7998   90.3852    5.8874 C.ar    1  UNL1        0.0813
     39 C          58.4269   90.8620    5.5161 C.ar    1  UNL1        0.0188
     40 C          58.2423   91.7737    4.3394 C.ar    1  UNL1       -0.0012
     41 C          59.4306   92.2087    3.5340 C.ar    1  UNL1       -0.0027
     42 C          59.2462   93.1204    2.3572 C.3     1  UNL1        0.0327
     43 C          60.8035   91.7319    3.9053 C.ar    1  UNL1        0.0945
     44 N          60.9881   90.8202    5.0820 N.ar    1  UNL1       -0.2442
@<TRIPOS>UNITY_ATOM_ATTR
29 1
charge -1
@<TRIPOS>BOND
     1    12    13    1
     2    13    14   ar
     3    14    15   ar
     4    15    16   ar
     5    16    11    1
     6    11    10    1
     7    10     1    1
     8     1     2   ar
     9     2     3   ar
    10     3     4   ar
    11     4     5   ar
    12     5     6   ar
    13     5     7   ar
    14     7    19    1
    15    19    20    1
    16    20    21    1
    17    20    22    1
    18    20    23    1
    19     7     8   ar
    20     8    24    1
    21    24    25    1
    22    25    26    1
    23    25    27    1
    24    25    28    1
    25    28    29   ar
    26    28    30   ar
    27     8     9   ar
    28     9    31    1
    29    31    32    1
    30    32    33   ar
    31    33    34   ar
    32    34    35   ar
    33    35    38    1
    34    38    39   ar
    35    39    40   ar
    36    40    41   ar
    37    41    42    1
    38    41    43   ar
    39    43    44   ar
    40    35    36   ar
    41    36    37   ar
    42    16    17   ar
    43    17    18   ar
    44    18    13   ar
    45     6     1   ar
    46    37    32   ar
    47     9     4   ar
    48    44    38   ar
@<TRIPOS>MOLECULE
*****
 44 48 0 0 0
SMALL
GASTEIGER

@<TRIPOS>ATOM
      1 C          59.6923   88.8480    7.4405 C.ar    1  UNL1        0.1392
      2 C          59.4533   89.5268    8.7565 C.ar    1  UNL1        0.0384
      3 C          60.1523   89.0380    9.9904 C.ar    1  UNL1        0.0203
      4 C          61.0905   87.8705    9.9081 C.ar    1  UNL1        0.0606
      5 C          61.3295   87.1917    8.5920 C.ar    1  UNL1        0.0256
      6 C          60.6304   87.6805    7.3582 C.ar    1  UNL1        0.0389
      7 C          62.3024   86.0725    8.8177 C.ar    1  UNL1        0.0383
      8 C          62.6646   86.0596   10.2733 C.ar    1  UNL1        0.0433
      9 N          61.9156   87.1708   10.9472 N.ar    1  UNL1       -0.3260
     10 O          58.9932   89.3368    6.2066 O.3     1  UNL1       -0.4690
     11 C          58.8971   90.8083    5.9321 C.3     1  UNL1        0.2508
     12 C          62.1045   93.2468    1.4862 C.3     1  UNL1        0.0327
     13 C          61.3026   92.6371    2.5977 C.ar    1  UNL1       -0.0027
     14 C          61.9506   91.6769    3.5506 C.ar    1  UNL1       -0.0014
     15 C          61.1488   91.0673    4.6621 C.ar    1  UNL1        0.0181
     16 C          59.6990   91.4179    4.8206 C.ar    1  UNL1        0.1026
     17 N          59.0511   92.3782    3.8677 N.ar    1  UNL1       -0.2448
     18 C          59.8529   92.9878    2.7562 C.ar    1  UNL1        0.0943
     19 S          62.8218   85.1315    7.7714 S.3     1  UNL1       -0.1142
     20 C          61.9166   84.6570    6.6735 C.3     1  UNL1        0.0434
     21 C          63.1017   84.4871    5.7699 C.3     1  UNL1        0.0112
     22 C          60.7314   84.8270    7.5771 C.3     1  UNL1        0.0112
     23 C          61.0114   84.1826    5.5755 C.3     1  UNL1        0.0112
     24 C          63.6099   85.1033   10.9381 C.3     1  UNL1        0.0495
     25 C          63.1712   83.7000   11.2355 C.3     1  UNL1        0.0376
     26 C          62.3691   84.1978   12.4013 C.3     1  UNL1        0.0059
     27 C          63.9732   83.2022   10.0698 C.3     1  UNL1        0.0059
     28 C          62.7325   82.2968   11.5330 C.2     1  UNL1        0.0500
     29 O          61.9834   81.9973   12.7975 O.co2   1  UNL1       -0.5492
     30 O          63.0429   81.1930   10.5658 O.co2   1  UNL1       -0.5492
     31 C          61.9803   87.5208   12.4043 C.3     1  UNL1        0.1324
     32 C          62.9888   88.5184   12.8919 C.ar    1  UNL1        0.0004
     33 C          63.8669   88.1866   14.0619 C.ar    1  UNL1       -0.0023
     34 C          64.8754   89.1843   14.5495 C.ar    1  UNL1        0.0012
     35 C          65.0057   90.5137   13.8670 C.ar    1  UNL1        0.0176
     36 C          64.1277   90.8454   12.6971 C.ar    1  UNL1        0.0012
     37 C          63.1192   89.8478   12.2095 C.ar    1  UNL1       -0.0023
     38 C          66.0142   91.5113   14.3546 C.ar    1  UNL1        0.0813
     39 C          67.1785   91.0567   15.1839 C.ar    1  UNL1        0.0188
     40 C          68.1870   92.0543   15.6715 C.ar    1  UNL1       -0.0012
     41 C          68.0312   93.5065   15.3298 C.ar    1  UNL1       -0.0027
     42 C          69.0397   94.5042   15.8174 C.3     1  UNL1        0.0327
     43 C          66.8670   93.9611   14.5004 C.ar    1  UNL1        0.0945
     44 N          65.8585   92.9635   14.0128 N.ar    1  UNL1       -0.2442
@<TRIPOS>UNITY_ATOM_ATTR
29 1
charge -1
@<TRIPOS>BOND
     1    12    13    1
     2    13    14   ar
     3    14    15   ar
     4    15    16   ar
     5    16    11    1
     6    11    10    1
     7    10     1    1
     8     1     2   ar
     9     2     3   ar
    10     3     4   ar
    11     4     5   ar
    12     5     6   ar
    13     5     7   ar
    14     7    19    1
    15    19    20    1
    16    20    21    1
    17    20    22    1
    18    20    23    1
    19     7     8   ar
    20     8    24    1
    21    24    25    1
    22    25    26    1
    23    25    27    1
    24    25    28    1
    25    28    29   ar
    26    28    30   ar
    27     8     9   ar
    28     9    31    1
    29    31    32    1
    30    32    33   ar
    31    33    34   ar
    32    34    35   ar
    33    35    38    1
    34    38    39   ar
    35    39    40   ar
    36    40    41   ar
    37    41    42    1
    38    41    43   ar
    39    43    44   ar
    40    35    36   ar
    41    36    37   ar
    42    16    17   ar
    43    17    18   ar
    44    18    13   ar
    45     6     1   ar
    46    37    32   ar
    47     9     4   ar
    48    44    38   ar
@<TRIPOS>MOLECULE
*****
 44 48 0 0 0
SMALL
GASTEIGER

@<TRIPOS>ATOM
      1 C          63.3560   90.2566   13.0098 C.ar    1  UNL1        0.1392
      2 C          62.2782   90.5643   12.0130 C.ar    1  UNL1        0.0384
      3 C          61.5572   89.4469   11.3192 C.ar    1  UNL1        0.0203
      4 C          61.9141   88.0218   11.6220 C.ar    1  UNL1        0.0606
      5 C          62.9919   87.7141   12.6187 C.ar    1  UNL1        0.0256
      6 C          63.7129   88.8315   13.3126 C.ar    1  UNL1        0.0389
      7 C          63.1251   86.2229   12.7120 C.ar    1  UNL1        0.0383
      8 C          62.1294   85.6090   11.7729 C.ar    1  UNL1        0.0433
      9 N          61.3810   86.7207   11.0992 N.ar    1  UNL1       -0.3260
     10 O          64.0771   91.3740   13.7037 O.3     1  UNL1       -0.4690
     11 C          65.3068   91.9709   13.0860 C.3     1  UNL1        0.2508
     12 C          70.0377   93.3189   16.5214 C.3     1  UNL1        0.0327
     13 C          68.8550   92.9819   15.6625 C.ar    1  UNL1       -0.0027
     14 C          67.4676   93.0814   16.2241 C.ar    1  UNL1       -0.0014
     15 C          66.2849   92.7444   15.3653 C.ar    1  UNL1        0.0181
     16 C          66.4895   92.3079   13.9449 C.ar    1  UNL1        0.1026
     17 N          67.8769   92.2084   13.3833 N.ar    1  UNL1       -0.2448
     18 C          69.0596   92.5454   14.2421 C.ar    1  UNL1        0.0943
     19 S          64.0852   85.4767   13.5902 S.3     1  UNL1       -0.1142
     20 C          63.9477   85.5480   15.0821 C.3     1  UNL1        0.0434
     21 C          65.2010   86.3686   15.1585 C.3     1  UNL1        0.0112
     22 C          62.6944   84.7273   15.0058 C.3     1  UNL1        0.0112
     23 C          63.8102   85.6192   16.5741 C.3     1  UNL1        0.0112
     24 C          61.9192   84.1410   11.5471 C.3     1  UNL1        0.0495
     25 C          63.0974   83.2409   11.3195 C.3     1  UNL1        0.0376
     26 C          62.6180   82.3362   12.4157 C.3     1  UNL1        0.0059
     27 C          63.5767   84.1457   10.2232 C.3     1  UNL1        0.0059
     28 C          64.2756   82.3409   11.0918 C.2     1  UNL1        0.0500
     29 O          64.7907   82.1171    9.7010 O.co2   1  UNL1       -0.5492
     30 O          64.9385   81.6646   12.2551 O.co2   1  UNL1       -0.5492
     31 C          60.2909   86.5598   10.0815 C.3     1  UNL1        0.1324
     32 C          60.1618   87.5457    8.9584 C.ar    1  UNL1        0.0004
     33 C          60.2683   89.0160    9.2352 C.ar    1  UNL1       -0.0023
     34 C          60.1393   90.0019    8.1121 C.ar    1  UNL1        0.0012
     35 C          59.9037   89.5173    6.7121 C.ar    1  UNL1        0.0176
     36 C          59.7972   88.0470    6.4354 C.ar    1  UNL1        0.0012
     37 C          59.9263   87.0611    7.5585 C.ar    1  UNL1       -0.0023
     38 C          59.7747   90.5032    5.5890 C.ar    1  UNL1        0.0813
     39 C          58.4333   91.0825    5.2500 C.ar    1  UNL1        0.0188
     40 C          58.3042   92.0684    4.1269 C.ar    1  UNL1       -0.0012
     41 C          59.5166   92.4750    3.3428 C.ar    1  UNL1       -0.0027
     42 C          59.3876   93.4609    2.2196 C.3     1  UNL1        0.0327
     43 C          60.8580   91.8956    3.6818 C.ar    1  UNL1        0.0945
     44 N          60.9870   90.9097    4.8049 N.ar    1  UNL1       -0.2442
@<TRIPOS>UNITY_ATOM_ATTR
29 1
charge -1
@<TRIPOS>BOND
     1    12    13    1
     2    13    14   ar
     3    14    15   ar
     4    15    16   ar
     5    16    11    1
     6    11    10    1
     7    10     1    1
     8     1     2   ar
     9     2     3   ar
    10     3     4   ar
    11     4     5   ar
    12     5     6   ar
    13     5     7   ar
    14     7    19    1
    15    19    20    1
    16    20    21    1
    17    20    22    1
    18    20    23    1
    19     7     8   ar
    20     8    24    1
    21    24    25    1
    22    25    26    1
    23    25    27    1
    24    25    28    1
    25    28    29   ar
    26    28    30   ar
    27     8     9   ar
    28     9    31    1
    29    31    32    1
    30    32    33   ar
    31    33    34   ar
    32    34    35   ar
    33    35    38    1
    34    38    39   ar
    35    39    40   ar
    36    40    41   ar
    37    41    42    1
    38    41    43   ar
    39    43    44   ar
    40    35    36   ar
    41    36    37   ar
    42    16    17   ar
    43    17    18   ar
    44    18    13   ar
    45     6     1   ar
    46    37    32   ar
    47     9     4   ar
    48    44    38   ar
@<TRIPOS>MOLECULE
*****
 44 48 0 0 0
SMALL
GASTEIGER

@<TRIPOS>ATOM
      1 C          63.7977   84.1961   11.1527 C.ar    1  UNL1        0.1392
      2 C          63.9095   85.1651   12.2922 C.ar    1  UNL1        0.0384
      3 C          63.0531   86.3964   12.3163 C.ar    1  UNL1        0.0203
      4 C          62.0851   86.6586   11.2009 C.ar    1  UNL1        0.0606
      5 C          61.9733   85.6896   10.0614 C.ar    1  UNL1        0.0256
      6 C          62.8297   84.4583   10.0373 C.ar    1  UNL1        0.0389
      7 C          60.9370   86.2102    9.1101 C.ar    1  UNL1        0.0383
      8 C          60.4083   87.5011    9.6617 C.ar    1  UNL1        0.0433
      9 N          61.1178   87.7782   10.9538 N.ar    1  UNL1       -0.3260
     10 O          64.6541   82.9648   11.1286 O.3     1  UNL1       -0.4690
     11 C          64.6580   82.0308   12.3023 C.3     1  UNL1        0.2508
     12 C          59.4737   79.9941   14.5327 C.3     1  UNL1        0.0327
     13 C          60.7698   80.5033   13.9751 C.ar    1  UNL1       -0.0027
     14 C          61.5660   79.6520   13.0309 C.ar    1  UNL1       -0.0014
     15 C          62.8621   80.1612   12.4733 C.ar    1  UNL1        0.0181
     16 C          63.3619   81.5216   12.8599 C.ar    1  UNL1        0.1026
     17 N          62.5657   82.3728   13.8040 N.ar    1  UNL1       -0.2448
     18 C          61.2696   81.8637   14.3616 C.ar    1  UNL1        0.0943
     19 S          60.5053   85.5550    7.8317 S.3     1  UNL1       -0.1142
     20 C          61.5321   85.0035    6.8876 C.3     1  UNL1        0.0434
     21 C          62.5734   85.8918    7.5012 C.3     1  UNL1        0.0112
     22 C          60.4908   84.1152    6.2740 C.3     1  UNL1        0.0112
     23 C          62.5590   84.4520    5.9434 C.3     1  UNL1        0.0112
     24 C          59.3549   88.3633    9.0316 C.3     1  UNL1        0.0495
     25 C          59.6641   89.1322    7.7813 C.3     1  UNL1        0.0376
     26 C          60.6344   89.9839    8.5450 C.3     1  UNL1        0.0059
     27 C          58.6939   88.2805    7.0176 C.3     1  UNL1        0.0059
     28 C          59.9734   89.9011    6.5310 C.2     1  UNL1        0.0500
     29 O          58.9576   89.9830    5.4304 O.co2   1  UNL1       -0.5492
     30 O          61.2985   90.5880    6.3814 O.co2   1  UNL1       -0.5492
     31 C          60.8985   88.9663   11.8429 C.3     1  UNL1        0.1324
     32 C          62.0740   89.7039   12.4124 C.ar    1  UNL1        0.0004
     33 C          62.9217   90.5647   11.5234 C.ar    1  UNL1       -0.0023
     34 C          64.0971   91.3023   12.0929 C.ar    1  UNL1        0.0012
     35 C          64.4247   91.1791   13.5515 C.ar    1  UNL1        0.0176
     36 C          63.5770   90.3183   14.4405 C.ar    1  UNL1        0.0012
     37 C          62.4016   89.5807   13.8710 C.ar    1  UNL1       -0.0023
     38 C          65.6001   91.9167   14.1210 C.ar    1  UNL1        0.0813
     39 C          66.5707   91.2044   15.0157 C.ar    1  UNL1        0.0188
     40 C          67.7461   91.9420   15.5852 C.ar    1  UNL1       -0.0012
     41 C          67.9509   93.3920   15.2601 C.ar    1  UNL1       -0.0027
     42 C          69.1263   94.1297   15.8295 C.3     1  UNL1        0.0327
     43 C          66.9803   94.1043   14.3654 C.ar    1  UNL1        0.0945
     44 N          65.8049   93.3666   13.7959 N.ar    1  UNL1       -0.2442
@<TRIPOS>UNITY_ATOM_ATTR
29 1
charge -1
@<TRIPOS>BOND
     1    12    13    1
     2    13    14   ar
     3    14    15   ar
     4    15    16   ar
     5    16    11    1
     6    11    10    1
     7    10     1    1
     8     1     2   ar
     9     2     3   ar
    10     3     4   ar
    11     4     5   ar
    12     5     6   ar
    13     5     7   ar
    14     7    19    1
    15    19    20    1
    16    20    21    1
    17    20    22    1
    18    20    23    1
    19     7     8   ar
    20     8    24    1
    21    24    25    1
    22    25    26    1
    23    25    27    1
    24    25    28    1
    25    28    29   ar
    26    28    30   ar
    27     8     9   ar
    28     9    31    1
    29    31    32    1
    30    32    33   ar
    31    33    34   ar
    32    34    35   ar
    33    35    38    1
    34    38    39   ar
    35    39    40   ar
    36    40    41   ar
    37    41    42    1
    38    41    43   ar
    39    43    44   ar
    40    35    36   ar
    41    36    37   ar
    42    16    17   ar
    43    17    18   ar
    44    18    13   ar
    45     6     1   ar
    46    37    32   ar
    47     9     4   ar
    48    44    38   ar
@<TRIPOS>MOLECULE
*****
 44 48 0 0 0
SMALL
GASTEIGER

@<TRIPOS>ATOM
      1 C          63.5823   85.4001   13.3553 C.ar    1  UNL1        0.1392
      2 C          63.9486   86.7188   13.9690 C.ar    1  UNL1        0.0384
      3 C          63.5802   87.9969   13.2755 C.ar    1  UNL1        0.0203
      4 C          62.8456   87.9561   11.9684 C.ar    1  UNL1        0.0606
      5 C          62.4792   86.6373   11.3547 C.ar    1  UNL1        0.0256
      6 C          62.8476   85.3593   12.0482 C.ar    1  UNL1        0.0389
      7 C          61.7604   86.9092   10.0666 C.ar    1  UNL1        0.0383
      8 C          61.6824   88.3960    9.8841 C.ar    1  UNL1        0.0433
      9 N          62.3531   89.0431   11.0595 N.ar    1  UNL1       -0.3260
     10 O          63.9507   84.1220   14.0488 O.3     1  UNL1       -0.4690
     11 C          62.9700   82.9882   14.1025 C.3     1  UNL1        0.2508
     12 C          62.8666   78.9006    9.7114 C.3     1  UNL1        0.0327
     13 C          62.8925   79.9225   10.8093 C.ar    1  UNL1       -0.0027
     14 C          63.2029   81.3555   10.4928 C.ar    1  UNL1       -0.0014
     15 C          63.2288   82.3774   11.5905 C.ar    1  UNL1        0.0181
     16 C          62.9442   81.9663   13.0047 C.ar    1  UNL1        0.1026
     17 N          62.6337   80.5333   13.3211 N.ar    1  UNL1       -0.2448
     18 C          62.6079   79.5114   12.2234 C.ar    1  UNL1        0.0943
     19 S          61.2152   85.8757    9.1261 S.3     1  UNL1       -0.1142
     20 C          62.0450   85.4015    7.9700 C.3     1  UNL1        0.0434
     21 C          60.8241   85.3893    7.0987 C.3     1  UNL1        0.0112
     22 C          63.2660   85.4138    8.8413 C.3     1  UNL1        0.0112
     23 C          62.8748   84.9274    6.8138 C.3     1  UNL1        0.0112
     24 C          61.0455   89.1104    8.7290 C.3     1  UNL1        0.0495
     25 C          59.7554   88.6054    8.1541 C.3     1  UNL1        0.0376
     26 C          60.1726   89.0860    6.7958 C.3     1  UNL1        0.0059
     27 C          59.3382   88.1248    9.5124 C.3     1  UNL1        0.0059
     28 C          58.4652   88.1004    7.5792 C.2     1  UNL1        0.0500
     29 O          57.5922   89.0180    6.7757 O.co2   1  UNL1       -0.5492
     30 O          58.0482   86.6778    7.8079 O.co2   1  UNL1       -0.5492
     31 C          62.5047   90.5181   11.2862 C.3     1  UNL1        0.1324
     32 C          63.6986   91.0443   12.0262 C.ar    1  UNL1        0.0004
     33 C          63.8456   90.7820   13.4958 C.ar    1  UNL1       -0.0023
     34 C          65.0395   91.3083   14.2358 C.ar    1  UNL1        0.0012
     35 C          66.0864   92.0969   13.5062 C.ar    1  UNL1        0.0176
     36 C          65.9393   92.3591   12.0367 C.ar    1  UNL1        0.0012
     37 C          64.7454   91.8329   11.2967 C.ar    1  UNL1       -0.0023
     38 C          67.2803   92.6231   14.2462 C.ar    1  UNL1        0.0813
     39 C          67.0917   93.5342   15.4228 C.ar    1  UNL1        0.0188
     40 C          68.2856   94.0604   16.1628 C.ar    1  UNL1       -0.0012
     41 C          69.6681   93.6756   15.7263 C.ar    1  UNL1       -0.0027
     42 C          70.8621   94.2019   16.4663 C.3     1  UNL1        0.0327
     43 C          69.8567   92.7646   14.5497 C.ar    1  UNL1        0.0945
     44 N          68.6628   92.2383   13.8097 N.ar    1  UNL1       -0.2442
@<TRIPOS>UNITY_ATOM_ATTR
29 1
charge -1
@<TRIPOS>BOND
     1    12    13    1
     2    13    14   ar
     3    14    15   ar
     4    15    16   ar
     5    16    11    1
     6    11    10    1
     7    10     1    1
     8     1     2   ar
     9     2     3   ar
    10     3     4   ar
    11     4     5   ar
    12     5     6   ar
    13     5     7   ar
    14     7    19    1
    15    19    20    1
    16    20    21    1
    17    20    22    1
    18    20    23    1
    19     7     8   ar
    20     8    24    1
    21    24    25    1
    22    25    26    1
    23    25    27    1
    24    25    28    1
    25    28    29   ar
    26    28    30   ar
    27     8     9   ar
    28     9    31    1
    29    31    32    1
    30    32    33   ar
    31    33    34   ar
    32    34    35   ar
    33    35    38    1
    34    38    39   ar
    35    39    40   ar
    36    40    41   ar
    37    41    42    1
    38    41    43   ar
    39    43    44   ar
    40    35    36   ar
    41    36    37   ar
    42    16    17   ar
    43    17    18   ar
    44    18    13   ar
    45     6     1   ar
    46    37    32   ar
    47     9     4   ar
    48    44    38   ar
@<TRIPOS>MOLECULE
*****
 44 48 0 0 0
SMALL
GASTEIGER

@<TRIPOS>ATOM
      1 C          64.0621   83.6313   11.6687 C.ar    1  UNL1        0.1392
      2 C          64.2165   84.4069   12.9432 C.ar    1  UNL1        0.0384
      3 C          63.5515   85.7430   13.0933 C.ar    1  UNL1        0.0203
      4 C          62.7322   86.3036   11.9689 C.ar    1  UNL1        0.0606
      5 C          62.5778   85.5280   10.6943 C.ar    1  UNL1        0.0256
      6 C          63.2427   84.1919   10.5442 C.ar    1  UNL1        0.0389
      7 C          61.7150   86.3298    9.7654 C.ar    1  UNL1        0.0383
      8 C          61.3362   87.6009   10.4660 C.ar    1  UNL1        0.0433
      9 N          61.9648   87.5847   11.8278 N.ar    1  UNL1       -0.3260
     10 O          64.7271   82.2951   11.5185 O.3     1  UNL1       -0.4690
     11 C          64.5499   81.2462   12.5760 C.3     1  UNL1        0.2508
     12 C          59.0541   79.8899   14.5653 C.3     1  UNL1        0.0327
     13 C          60.4281   80.2290   14.0679 C.ar    1  UNL1       -0.0027
     14 C          60.9720   81.6145   14.2532 C.ar    1  UNL1       -0.0014
     15 C          62.3459   81.9536   13.7559 C.ar    1  UNL1        0.0181
     16 C          63.1759   80.9071   13.0733 C.ar    1  UNL1        0.1026
     17 N          62.6320   79.5215   12.8881 N.ar    1  UNL1       -0.2448
     18 C          61.2581   79.1825   13.3854 C.ar    1  UNL1        0.0943
     19 S          61.3034   85.9305    8.3794 S.3     1  UNL1       -0.1142
     20 C          62.2833   85.2445    7.4743 C.3     1  UNL1        0.0434
     21 C          61.1508   84.5640    6.7640 C.3     1  UNL1        0.0112
     22 C          63.4157   85.9249    8.1846 C.3     1  UNL1        0.0112
     23 C          63.2632   84.5585    6.5692 C.3     1  UNL1        0.0112
     24 C          60.4792   88.6960    9.9034 C.3     1  UNL1        0.0495
     25 C          59.6376   89.5350   10.8187 C.3     1  UNL1        0.0376
     26 C          60.3980   90.7574   10.3974 C.3     1  UNL1        0.0059
     27 C          58.8772   88.3125   11.2401 C.3     1  UNL1        0.0059
     28 C          58.7961   90.3739   11.7341 C.2     1  UNL1        0.0500
     29 O          58.0955   89.7407   12.8994 O.co2   1  UNL1       -0.5492
     30 O          58.6551   91.8463   11.4840 O.co2   1  UNL1       -0.5492
     31 C          61.8468   88.6608   12.8661 C.3     1  UNL1        0.1324
     32 C          63.0611   89.4359   13.2843 C.ar    1  UNL1        0.0004
     33 C          63.8372   89.0170   14.4976 C.ar    1  UNL1       -0.0023
     34 C          65.0514   89.7921   14.9158 C.ar    1  UNL1        0.0012
     35 C          65.4895   90.9862   14.1204 C.ar    1  UNL1        0.0176
     36 C          64.7134   91.4050   12.9072 C.ar    1  UNL1        0.0012
     37 C          63.4991   90.6299   12.4890 C.ar    1  UNL1       -0.0023
     38 C          66.7037   91.7613   14.5386 C.ar    1  UNL1        0.0813
     39 C          66.6639   92.6073   15.7766 C.ar    1  UNL1        0.0188
     40 C          67.8781   93.3824   16.1948 C.ar    1  UNL1       -0.0012
     41 C          69.1322   93.3116   15.3749 C.ar    1  UNL1       -0.0027
     42 C          70.3465   94.0867   15.7929 C.3     1  UNL1        0.0327
     43 C          69.1720   92.4656   14.1368 C.ar    1  UNL1        0.0945
     44 N          67.9578   91.6905   13.7187 N.ar    1  UNL1       -0.2442
@<TRIPOS>UNITY_ATOM_ATTR
29 1
charge -1
@<TRIPOS>BOND
     1    12    13    1
     2    13    14   ar
     3    14    15   ar
     4    15    16   ar
     5    16    11    1
     6    11    10    1
     7    10     1    1
     8     1     2   ar
     9     2     3   ar
    10     3     4   ar
    11     4     5   ar
    12     5     6   ar
    13     5     7   ar
    14     7    19    1
    15    19    20    1
    16    20    21    1
    17    20    22    1
    18    20    23    1
    19     7     8   ar
    20     8    24    1
    21    24    25    1
    22    25    26    1
    23    25    27    1
    24    25    28    1
    25    28    29   ar
    26    28    30   ar
    27     8     9   ar
    28     9    31    1
    29    31    32    1
    30    32    33   ar
    31    33    34   ar
    32    34    35   ar
    33    35    38    1
    34    38    39   ar
    35    39    40   ar
    36    40    41   ar
    37    41    42    1
    38    41    43   ar
    39    43    44   ar
    40    35    36   ar
    41    36    37   ar
    42    16    17   ar
    43    17    18   ar
    44    18    13   ar
    45     6     1   ar
    46    37    32   ar
    47     9     4   ar
    48    44    38   ar
