@<TRIPOS>MOLECULE
*****
 30 32 0 0 0
SMALL
GASTEIGER

@<TRIPOS>ATOM
      1 C          61.3916   88.5531    9.4528 C.3     1  UNL1        0.0328
      2 C          62.2729   89.3177   10.3955 C.ar    1  UNL1        0.0004
      3 C          62.6717   90.7272   10.0728 C.ar    1  UNL1        0.0002
      4 C          63.5530   91.4919   11.0155 C.ar    1  UNL1        0.0340
      5 C          64.0354   90.8470   12.2809 C.ar    1  UNL1        0.1318
      6 N          63.6366   89.4375   12.6037 N.ar    1  UNL1       -0.2264
      7 C          62.7553   88.6729   11.6609 C.ar    1  UNL1        0.1322
      8 N          64.9166   91.6117   13.2237 N.pl3   1  UNL1       -0.2931
      9 C          65.7370   92.7611   12.7179 C.3     1  UNL1        0.0946
     10 C          66.6182   93.5257   13.6606 C.3     1  UNL1        0.0507
     11 C          66.6792   93.1409   15.1091 C.3     1  UNL1        0.1139
     12 O          67.5604   93.9056   16.0518 O.3     1  UNL1       -0.3843
     13 C          65.8588   91.9915   15.6149 C.3     1  UNL1        0.0507
     14 C          64.9776   91.2269   14.6722 C.3     1  UNL1        0.0946
     15 H          68.2461   93.3164   16.4032 H       1  UNL1        0.2103
     16 C          62.3565   87.2633   11.9837 C.2     1  UNL1        0.2670
     17 O          60.9450   86.8116   11.7524 O.2     1  UNL1       -0.2682
     18 N          63.3692   86.3055   12.5378 N.am    1  UNL1       -0.2797
     19 H          64.2956   86.6020   12.6896 H       1  UNL1        0.1552
     20 C          62.9704   84.8959   12.8606 C.ar    1  UNL1        0.0425
     21 C          62.7612   83.9038   11.7551 C.ar    1  UNL1       -0.0086
     22 C          62.9508   84.3214   10.3269 C.3     1  UNL1        0.0323
     23 C          62.3624   82.4943   12.0778 C.ar    1  UNL1       -0.0019
     24 C          62.1728   82.0769   13.5060 C.ar    1  UNL1        0.0134
     25 C          62.3820   83.0690   14.6115 C.ar    1  UNL1       -0.0019
     26 C          62.7808   84.4785   14.2887 C.ar    1  UNL1       -0.0086
     27 C          62.9900   85.4705   15.3942 C.3     1  UNL1        0.0323
     28 C          61.7740   80.6673   13.8288 C.2     1  UNL1        0.0728
     29 O          62.7238   79.5384   13.5580 O.co2   1  UNL1       -0.5446
     30 O          60.4253   80.3867   14.4223 O.co2   1  UNL1       -0.5446
@<TRIPOS>UNITY_ATOM_ATTR
29 1
charge -1
@<TRIPOS>BOND
     1     1     2    1
     2     2     3   ar
     3     3     4   ar
     4     4     5   ar
     5     5     8    1
     6     8     9    1
     7     9    10    1
     8    10    11    1
     9    11    12    1
    10    11    13    1
    11    13    14    1
    12     5     6   ar
    13     6     7   ar
    14     7    16    1
    15    16    17    2
    16    16    18   am
    17    18    20    1
    18    20    21   ar
    19    21    22    1
    20    21    23   ar
    21    23    24   ar
    22    24    28    1
    23    28    29   ar
    24    28    30   ar
    25    24    25   ar
    26    25    26   ar
    27    26    27    1
    28     7     2   ar
    29    26    20   ar
    30    14     8    1
    31    12    15    1
    32    18    19    1
@<TRIPOS>MOLECULE
*****
 30 32 0 0 0
SMALL
GASTEIGER

@<TRIPOS>ATOM
      1 C          61.3853   88.5603    9.4535 C.3     1  UNL1        0.0328
      2 C          62.2672   89.3240   10.3964 C.ar    1  UNL1        0.0004
      3 C          62.6647   90.7343   10.0754 C.ar    1  UNL1        0.0002
      4 C          63.5465   91.4980   11.0182 C.ar    1  UNL1        0.0340
      5 C          64.0309   90.8515   12.2821 C.ar    1  UNL1        0.1318
      6 N          63.6334   89.4412   12.6031 N.ar    1  UNL1       -0.2264
      7 C          62.7516   88.6775   11.6602 C.ar    1  UNL1        0.1322
      8 N          64.9128   91.6153   13.2249 N.pl3   1  UNL1       -0.2931
      9 C          64.9655   91.2368   14.6754 C.3     1  UNL1        0.0946
     10 C          65.8474   92.0005   15.6183 C.3     1  UNL1        0.0507
     11 C          66.6765   93.1428   15.1107 C.3     1  UNL1        0.1139
     12 O          67.5584   93.9065   16.0535 O.3     1  UNL1       -0.3843
     13 C          66.6238   93.5213   13.6602 C.3     1  UNL1        0.0507
     14 C          65.7419   92.7575   12.7173 C.3     1  UNL1        0.0946
     15 H          67.2578   94.8274   16.1031 H       1  UNL1        0.2103
     16 C          62.3541   87.2671   11.9812 C.2     1  UNL1        0.2670
     17 O          60.9454   86.8116   11.7400 O.2     1  UNL1       -0.2682
     18 N          63.3652   86.3124   12.5434 N.am    1  UNL1       -0.2797
     19 H          64.2897   86.6115   12.7017 H       1  UNL1        0.1552
     20 C          62.9677   84.9021   12.8645 C.ar    1  UNL1        0.0425
     21 C          62.7858   84.4808   14.2925 C.ar    1  UNL1       -0.0086
     22 C          63.0013   85.4698   15.3996 C.3     1  UNL1        0.0323
     23 C          62.3883   83.0705   14.6136 C.ar    1  UNL1       -0.0019
     24 C          62.1728   82.0816   13.5066 C.ar    1  UNL1        0.0134
     25 C          62.3548   82.5029   12.0785 C.ar    1  UNL1       -0.0019
     26 C          62.7522   83.9132   11.7575 C.ar    1  UNL1       -0.0086
     27 C          62.9342   84.3345   10.3294 C.3     1  UNL1        0.0323
     28 C          61.7753   80.6712   13.8276 C.2     1  UNL1        0.0728
     29 O          62.7276   79.5439   13.5587 O.co2   1  UNL1       -0.5446
     30 O          60.4256   80.3882   14.4176 O.co2   1  UNL1       -0.5446
@<TRIPOS>UNITY_ATOM_ATTR
29 1
charge -1
@<TRIPOS>BOND
     1     1     2    1
     2     2     3   ar
     3     3     4   ar
     4     4     5   ar
     5     5     8    1
     6     8     9    1
     7     9    10    1
     8    10    11    1
     9    11    12    1
    10    11    13    1
    11    13    14    1
    12     5     6   ar
    13     6     7   ar
    14     7    16    1
    15    16    17    2
    16    16    18   am
    17    18    20    1
    18    20    21   ar
    19    21    22    1
    20    21    23   ar
    21    23    24   ar
    22    24    28    1
    23    28    29   ar
    24    28    30   ar
    25    24    25   ar
    26    25    26   ar
    27    26    27    1
    28     7     2   ar
    29    26    20   ar
    30    14     8    1
    31    12    15    1
    32    18    19    1
@<TRIPOS>MOLECULE
*****
 30 32 0 0 0
SMALL
GASTEIGER

@<TRIPOS>ATOM
      1 C          62.8017   87.3062   17.2170 C.3     1  UNL1        0.0328
      2 C          63.3789   88.3852   16.3495 C.ar    1  UNL1        0.0004
      3 C          63.3741   89.8092   16.8207 C.ar    1  UNL1        0.0002
      4 C          63.9513   90.8882   15.9532 C.ar    1  UNL1        0.0340
      5 C          64.5333   90.5432   14.6145 C.ar    1  UNL1        0.1318
      6 N          64.5381   89.1192   14.1433 N.ar    1  UNL1       -0.2264
      7 C          63.9609   88.0402   15.0108 C.ar    1  UNL1        0.1322
      8 N          65.1106   91.6222   13.7470 N.pl3   1  UNL1       -0.2931
      9 C          64.7365   91.6987   12.2965 C.3     1  UNL1        0.0946
     10 C          65.3137   92.7777   11.4290 C.3     1  UNL1        0.0507
     11 C          66.2650   93.7802   12.0120 C.3     1  UNL1        0.1139
     12 O          66.8422   94.8593   11.1445 O.3     1  UNL1       -0.3843
     13 C          66.6390   93.7038   13.4626 C.3     1  UNL1        0.0507
     14 C          66.0618   92.6247   14.3301 C.3     1  UNL1        0.0946
     15 H          67.8048   94.7518   11.0923 H       1  UNL1        0.2103
     16 C          63.9657   86.6161   14.5395 C.2     1  UNL1        0.2670
     17 O          65.1960   85.7746   14.7077 O.2     1  UNL1       -0.2682
     18 N          62.7403   86.0336   13.9001 N.am    1  UNL1       -0.2797
     19 H          61.9328   86.5859   13.7897 H       1  UNL1        0.1552
     20 C          62.7451   84.6095   13.4288 C.ar    1  UNL1        0.0425
     21 C          62.7478   83.4894   14.4264 C.ar    1  UNL1       -0.0086
     22 C          62.7456   83.7933   15.8954 C.3     1  UNL1        0.0323
     23 C          62.7525   82.0653   13.9552 C.ar    1  UNL1       -0.0019
     24 C          62.7547   81.7615   12.4864 C.ar    1  UNL1        0.0134
     25 C          62.7520   82.8816   11.4887 C.ar    1  UNL1       -0.0019
     26 C          62.7472   84.3056   11.9599 C.ar    1  UNL1       -0.0086
     27 C          62.7445   85.4257   10.9623 C.3     1  UNL1        0.0323
     28 C          62.7594   80.3374   12.0151 C.2     1  UNL1        0.0728
     29 O          63.0448   80.0245   10.5761 O.co2   1  UNL1       -0.5446
     30 O          62.4789   79.2262   12.9828 O.co2   1  UNL1       -0.5446
@<TRIPOS>UNITY_ATOM_ATTR
29 1
charge -1
@<TRIPOS>BOND
     1     1     2    1
     2     2     3   ar
     3     3     4   ar
     4     4     5   ar
     5     5     8    1
     6     8     9    1
     7     9    10    1
     8    10    11    1
     9    11    12    1
    10    11    13    1
    11    13    14    1
    12     5     6   ar
    13     6     7   ar
    14     7    16    1
    15    16    17    2
    16    16    18   am
    17    18    20    1
    18    20    21   ar
    19    21    22    1
    20    21    23   ar
    21    23    24   ar
    22    24    28    1
    23    28    29   ar
    24    28    30   ar
    25    24    25   ar
    26    25    26   ar
    27    26    27    1
    28     7     2   ar
    29    26    20   ar
    30    14     8    1
    31    12    15    1
    32    18    19    1
@<TRIPOS>MOLECULE
*****
 30 32 0 0 0
SMALL
GASTEIGER

@<TRIPOS>ATOM
      1 C          62.8069   87.2985   17.2130 C.3     1  UNL1        0.0328
      2 C          63.3815   88.3790   16.3456 C.ar    1  UNL1        0.0004
      3 C          63.3782   89.8022   16.8193 C.ar    1  UNL1        0.0002
      4 C          63.9528   90.8827   15.9519 C.ar    1  UNL1        0.0340
      5 C          64.5307   90.5400   14.6108 C.ar    1  UNL1        0.1318
      6 N          64.5340   89.1168   14.1372 N.ar    1  UNL1       -0.2264
      7 C          63.9594   88.0363   15.0046 C.ar    1  UNL1        0.1322
      8 N          65.1053   91.6205   13.7434 N.pl3   1  UNL1       -0.2931
      9 C          64.7272   91.6992   12.2940 C.3     1  UNL1        0.0946
     10 C          65.3018   92.7797   11.4266 C.3     1  UNL1        0.0507
     11 C          66.2546   93.7814   12.0086 C.3     1  UNL1        0.1139
     12 O          66.8292   94.8619   11.1412 O.3     1  UNL1       -0.3843
     13 C          66.6327   93.7027   13.4580 C.3     1  UNL1        0.0507
     14 C          66.0581   92.6222   14.3254 C.3     1  UNL1        0.0946
     15 H          67.7916   94.7547   11.0861 H       1  UNL1        0.2103
     16 C          63.9628   86.6130   14.5308 C.2     1  UNL1        0.2670
     17 O          65.1923   85.7701   14.6972 O.2     1  UNL1       -0.2682
     18 N          62.7366   86.0327   13.8908 N.am    1  UNL1       -0.2797
     19 H          61.9296   86.5860   13.7816 H       1  UNL1        0.1552
     20 C          62.7399   84.6094   13.4170 C.ar    1  UNL1        0.0425
     21 C          62.7402   84.3081   11.9476 C.ar    1  UNL1       -0.0086
     22 C          62.7371   85.4300   10.9519 C.3     1  UNL1        0.0323
     23 C          62.7435   82.8849   11.4739 C.ar    1  UNL1       -0.0019
     24 C          62.7466   81.7631   12.4695 C.ar    1  UNL1        0.0134
     25 C          62.7463   82.0644   13.9390 C.ar    1  UNL1       -0.0019
     26 C          62.7430   83.4876   14.4127 C.ar    1  UNL1       -0.0086
     27 C          62.7428   83.7889   15.8821 C.3     1  UNL1        0.0323
     28 C          62.7499   80.3398   11.9958 C.2     1  UNL1        0.0728
     29 O          62.4819   79.2263   12.9644 O.co2   1  UNL1       -0.5446
     30 O          63.0212   80.0301   10.5534 O.co2   1  UNL1       -0.5446
@<TRIPOS>UNITY_ATOM_ATTR
29 1
charge -1
@<TRIPOS>BOND
     1     1     2    1
     2     2     3   ar
     3     3     4   ar
     4     4     5   ar
     5     5     8    1
     6     8     9    1
     7     9    10    1
     8    10    11    1
     9    11    12    1
    10    11    13    1
    11    13    14    1
    12     5     6   ar
    13     6     7   ar
    14     7    16    1
    15    16    17    2
    16    16    18   am
    17    18    20    1
    18    20    21   ar
    19    21    22    1
    20    21    23   ar
    21    23    24   ar
    22    24    28    1
    23    28    29   ar
    24    28    30   ar
    25    24    25   ar
    26    25    26   ar
    27    26    27    1
    28     7     2   ar
    29    26    20   ar
    30    14     8    1
    31    12    15    1
    32    18    19    1
@<TRIPOS>MOLECULE
*****
 30 32 0 0 0
SMALL
GASTEIGER

@<TRIPOS>ATOM
      1 C          63.3767   89.6384   17.3438 C.3     1  UNL1        0.0328
      2 C          63.4176   88.4550   16.4230 C.ar    1  UNL1        0.0004
      3 C          63.0963   87.0864   16.9459 C.ar    1  UNL1        0.0002
      4 C          63.1373   85.9030   16.0251 C.ar    1  UNL1        0.0340
      5 C          63.4995   86.0882   14.5813 C.ar    1  UNL1        0.1318
      6 N          63.8208   87.4569   14.0584 N.ar    1  UNL1       -0.2264
      7 C          63.7798   88.6403   14.9792 C.ar    1  UNL1        0.1322
      8 N          63.5404   84.9048   13.6605 N.pl3   1  UNL1       -0.2931
      9 C          62.9202   84.9932   12.2976 C.3     1  UNL1        0.0946
     10 C          62.9612   83.8098   11.3768 C.3     1  UNL1        0.0507
     11 C          63.6222   82.5381   11.8189 C.3     1  UNL1        0.1139
     12 O          63.6631   81.3547   10.8981 O.3     1  UNL1       -0.3843
     13 C          64.2424   82.4497   13.1818 C.3     1  UNL1        0.0507
     14 C          64.2014   83.6331   14.1026 C.3     1  UNL1        0.0946
     15 H          63.1650   80.6213   11.2917 H       1  UNL1        0.2103
     16 C          64.1012   90.0090   14.4562 C.2     1  UNL1        0.2670
     17 O          63.4741   91.2182   15.0845 O.2     1  UNL1       -0.2682
     18 N          65.0495   90.1685   13.3050 N.am    1  UNL1       -0.2797
     19 H          65.4610   89.3748   12.8927 H       1  UNL1        0.1552
     20 C          65.3708   91.5372   12.7820 C.ar    1  UNL1        0.0425
     21 C          66.3280   92.4193   13.5275 C.ar    1  UNL1       -0.0086
     22 C          66.9639   91.9326   14.7960 C.3     1  UNL1        0.0323
     23 C          66.6493   93.7879   13.0046 C.ar    1  UNL1       -0.0019
     24 C          66.0135   94.2745   11.7362 C.ar    1  UNL1        0.0134
     25 C          65.0563   93.3924   10.9907 C.ar    1  UNL1       -0.0019
     26 C          64.7349   92.0238   11.5136 C.ar    1  UNL1       -0.0086
     27 C          63.7777   91.1417   10.7682 C.3     1  UNL1        0.0323
     28 C          66.3348   95.6432   11.2132 C.2     1  UNL1        0.0728
     29 O          67.2468   95.8000   10.0327 O.co2   1  UNL1       -0.5446
     30 O          65.7440   96.8551   11.8707 O.co2   1  UNL1       -0.5446
@<TRIPOS>UNITY_ATOM_ATTR
29 1
charge -1
@<TRIPOS>BOND
     1     1     2    1
     2     2     3   ar
     3     3     4   ar
     4     4     5   ar
     5     5     8    1
     6     8     9    1
     7     9    10    1
     8    10    11    1
     9    11    12    1
    10    11    13    1
    11    13    14    1
    12     5     6   ar
    13     6     7   ar
    14     7    16    1
    15    16    17    2
    16    16    18   am
    17    18    20    1
    18    20    21   ar
    19    21    22    1
    20    21    23   ar
    21    23    24   ar
    22    24    28    1
    23    28    29   ar
    24    28    30   ar
    25    24    25   ar
    26    25    26   ar
    27    26    27    1
    28     7     2   ar
    29    26    20   ar
    30    14     8    1
    31    12    15    1
    32    18    19    1
@<TRIPOS>MOLECULE
*****
 30 32 0 0 0
SMALL
GASTEIGER

@<TRIPOS>ATOM
      1 C          63.3342   89.4567   17.2133 C.3     1  UNL1        0.0328
      2 C          63.3778   88.2939   16.2667 C.ar    1  UNL1        0.0004
      3 C          63.0757   86.9110   16.7631 C.ar    1  UNL1        0.0002
      4 C          63.1193   85.7482   15.8166 C.ar    1  UNL1        0.0340
      5 C          63.4651   85.9682   14.3737 C.ar    1  UNL1        0.1318
      6 N          63.7673   87.3510   13.8773 N.ar    1  UNL1       -0.2264
      7 C          63.7236   88.5139   14.8238 C.ar    1  UNL1        0.1322
      8 N          63.5088   84.8054   13.4272 N.pl3   1  UNL1       -0.2931
      9 C          64.1241   83.5080   13.8609 C.3     1  UNL1        0.0946
     10 C          64.1678   82.3452   12.9143 C.3     1  UNL1        0.0507
     11 C          63.5961   82.4797   11.5341 C.3     1  UNL1        0.1139
     12 O          63.6398   81.3169   10.5876 O.3     1  UNL1       -0.3843
     13 C          62.9808   83.7771   11.1004 C.3     1  UNL1        0.0507
     14 C          62.9371   84.9399   12.0470 C.3     1  UNL1        0.0946
     15 H          64.1870   81.5452    9.8199 H       1  UNL1        0.2103
     16 C          64.0258   89.8968   14.3274 C.2     1  UNL1        0.2670
     17 O          63.2052   91.0596   14.8011 O.2     1  UNL1       -0.2682
     18 N          65.1485   90.1167   13.3574 N.am    1  UNL1       -0.2797
     19 H          65.6871   89.3535   13.0465 H       1  UNL1        0.1552
     20 C          65.4507   91.4996   12.8609 C.ar    1  UNL1        0.0425
     21 C          64.8277   91.9925   11.5886 C.ar    1  UNL1       -0.0086
     22 C          63.9024   91.1026   10.8127 C.3     1  UNL1        0.0323
     23 C          65.1298   93.3754   11.0921 C.ar    1  UNL1       -0.0019
     24 C          66.0550   94.2652   11.8680 C.ar    1  UNL1        0.0134
     25 C          66.6781   93.7723   13.1404 C.ar    1  UNL1       -0.0019
     26 C          66.3759   92.3895   13.6368 C.ar    1  UNL1       -0.0086
     27 C          66.9990   91.8966   14.9091 C.3     1  UNL1        0.0323
     28 C          66.3572   95.6481   11.3716 C.2     1  UNL1        0.0728
     29 O          65.7795   96.8404   12.0750 O.co2   1  UNL1       -0.5446
     30 O          67.2370   95.8387   10.1718 O.co2   1  UNL1       -0.5446
@<TRIPOS>UNITY_ATOM_ATTR
29 1
charge -1
@<TRIPOS>BOND
     1     1     2    1
     2     2     3   ar
     3     3     4   ar
     4     4     5   ar
     5     5     8    1
     6     8     9    1
     7     9    10    1
     8    10    11    1
     9    11    12    1
    10    11    13    1
    11    13    14    1
    12     5     6   ar
    13     6     7   ar
    14     7    16    1
    15    16    17    2
    16    16    18   am
    17    18    20    1
    18    20    21   ar
    19    21    22    1
    20    21    23   ar
    21    23    24   ar
    22    24    28    1
    23    28    29   ar
    24    28    30   ar
    25    24    25   ar
    26    25    26   ar
    27    26    27    1
    28     7     2   ar
    29    26    20   ar
    30    14     8    1
    31    12    15    1
    32    18    19    1
@<TRIPOS>MOLECULE
*****
 30 32 0 0 0
SMALL
GASTEIGER

@<TRIPOS>ATOM
      1 C          60.8358   86.6463   11.0984 C.3     1  UNL1        0.0328
      2 C          60.5107   87.5115    9.9170 C.ar    1  UNL1        0.0004
      3 C          59.7558   86.9397    8.7538 C.ar    1  UNL1        0.0002
      4 C          59.4307   87.8048    7.5723 C.ar    1  UNL1        0.0340
      5 C          59.8604   89.2418    7.5541 C.ar    1  UNL1        0.1318
      6 N          60.6153   89.8136    8.7173 N.ar    1  UNL1       -0.2264
      7 C          60.9404   88.9485    9.8987 C.ar    1  UNL1        0.1322
      8 N          59.5353   90.1069    6.3726 N.pl3   1  UNL1       -0.2931
      9 C          60.6371   90.6243    5.4961 C.3     1  UNL1        0.0946
     10 C          60.3120   91.4895    4.3147 C.3     1  UNL1        0.0507
     11 C          58.8851   91.8372    4.0097 C.3     1  UNL1        0.1139
     12 O          58.5600   92.7024    2.8283 O.3     1  UNL1       -0.3843
     13 C          57.7833   91.3198    4.8863 C.3     1  UNL1        0.0507
     14 C          58.1085   90.4547    6.0677 C.3     1  UNL1        0.0946
     15 H          58.1507   93.5269    3.1342 H       1  UNL1        0.2103
     16 C          61.6954   89.5204   11.0620 C.2     1  UNL1        0.2670
     17 O          60.9635   89.9131   12.3110 O.2     1  UNL1       -0.2682
     18 N          63.1821   89.6995   10.9762 N.am    1  UNL1       -0.2797
     19 H          63.6625   89.4417   10.1564 H       1  UNL1        0.1552
     20 C          63.9371   90.2714   12.1395 C.ar    1  UNL1        0.0425
     21 C          64.5185   91.6513   12.0508 C.ar    1  UNL1       -0.0086
     22 C          64.3451   92.4592   10.7989 C.3     1  UNL1        0.0323
     23 C          65.2734   92.2232   13.2140 C.ar    1  UNL1       -0.0019
     24 C          65.4469   91.4152   14.4658 C.ar    1  UNL1        0.0134
     25 C          64.8654   90.0353   14.5544 C.ar    1  UNL1       -0.0019
     26 C          64.1105   89.4634   13.3913 C.ar    1  UNL1       -0.0086
     27 C          63.5290   88.0835   13.4799 C.3     1  UNL1        0.0323
     28 C          66.2018   91.9871   15.6291 C.2     1  UNL1        0.0728
     29 O          65.4588   92.6309   16.7619 O.co2   1  UNL1       -0.5446
     30 O          67.6998   91.9151   15.6594 O.co2   1  UNL1       -0.5446
@<TRIPOS>UNITY_ATOM_ATTR
29 1
charge -1
@<TRIPOS>BOND
     1     1     2    1
     2     2     3   ar
     3     3     4   ar
     4     4     5   ar
     5     5     8    1
     6     8     9    1
     7     9    10    1
     8    10    11    1
     9    11    12    1
    10    11    13    1
    11    13    14    1
    12     5     6   ar
    13     6     7   ar
    14     7    16    1
    15    16    17    2
    16    16    18   am
    17    18    20    1
    18    20    21   ar
    19    21    22    1
    20    21    23   ar
    21    23    24   ar
    22    24    28    1
    23    28    29   ar
    24    28    30   ar
    25    24    25   ar
    26    25    26   ar
    27    26    27    1
    28     7     2   ar
    29    26    20   ar
    30    14     8    1
    31    12    15    1
    32    18    19    1
@<TRIPOS>MOLECULE
*****
 30 32 0 0 0
SMALL
GASTEIGER

@<TRIPOS>ATOM
      1 C          62.9574   88.2474   17.1441 C.3     1  UNL1        0.0328
      2 C          63.5466   89.2557   16.2027 C.ar    1  UNL1        0.0004
      3 C          63.7559   90.6707   16.6543 C.ar    1  UNL1        0.0002
      4 C          64.3451   91.6790   15.7129 C.ar    1  UNL1        0.0340
      5 C          64.7250   91.2724   14.3200 C.ar    1  UNL1        0.1318
      6 N          64.5157   89.8574   13.8685 N.ar    1  UNL1       -0.2264
      7 C          63.9265   88.8490   14.8098 C.ar    1  UNL1        0.1322
      8 N          65.3142   92.2807   13.3787 N.pl3   1  UNL1       -0.2931
      9 C          66.1584   93.4003   13.9113 C.3     1  UNL1        0.0946
     10 C          66.7476   94.4086   12.9699 C.3     1  UNL1        0.0507
     11 C          66.4925   94.2973   11.4960 C.3     1  UNL1        0.1139
     12 O          67.0817   95.3057   10.5546 O.3     1  UNL1       -0.3843
     13 C          65.6483   93.1778   10.9634 C.3     1  UNL1        0.0507
     14 C          65.0591   92.1694   11.9048 C.3     1  UNL1        0.0946
     15 H          66.3678   95.7925   10.1140 H       1  UNL1        0.2103
     16 C          63.7172   87.4340   14.3582 C.2     1  UNL1        0.2670
     17 O          63.3194   87.1504   12.9399 O.2     1  UNL1       -0.2682
     18 N          63.9057   86.3026   15.3247 N.am    1  UNL1       -0.2797
     19 H          64.1668   86.4887   16.2556 H       1  UNL1        0.1552
     20 C          63.6965   84.8875   14.8731 C.ar    1  UNL1        0.0425
     21 C          62.3598   84.2318   15.0560 C.ar    1  UNL1       -0.0086
     22 C          61.2324   84.9912   15.6905 C.3     1  UNL1        0.0323
     23 C          62.1505   82.8168   14.6044 C.ar    1  UNL1       -0.0019
     24 C          63.2778   82.0576   13.9699 C.ar    1  UNL1        0.0134
     25 C          64.6145   82.7133   13.7871 C.ar    1  UNL1       -0.0019
     26 C          64.8238   84.1282   14.2387 C.ar    1  UNL1       -0.0086
     27 C          66.1604   84.7839   14.0558 C.3     1  UNL1        0.0323
     28 C          63.0686   80.6425   13.5183 C.2     1  UNL1        0.0728
     29 O          63.1236   79.5217   14.5136 O.co2   1  UNL1       -0.5446
     30 O          62.8043   80.3484   12.0713 O.co2   1  UNL1       -0.5446
@<TRIPOS>UNITY_ATOM_ATTR
29 1
charge -1
@<TRIPOS>BOND
     1     1     2    1
     2     2     3   ar
     3     3     4   ar
     4     4     5   ar
     5     5     8    1
     6     8     9    1
     7     9    10    1
     8    10    11    1
     9    11    12    1
    10    11    13    1
    11    13    14    1
    12     5     6   ar
    13     6     7   ar
    14     7    16    1
    15    16    17    2
    16    16    18   am
    17    18    20    1
    18    20    21   ar
    19    21    22    1
    20    21    23   ar
    21    23    24   ar
    22    24    28    1
    23    28    29   ar
    24    28    30   ar
    25    24    25   ar
    26    25    26   ar
    27    26    27    1
    28     7     2   ar
    29    26    20   ar
    30    14     8    1
    31    12    15    1
    32    18    19    1
