@<TRIPOS>MOLECULE
*****
 31 33 0 0 0
SMALL
GASTEIGER

@<TRIPOS>ATOM
      1 C          62.1819   86.3343   10.6382 C.ar    1  UNL1        0.1300
      2 N          61.9781   86.3150    9.1523 N.ar    1  UNL1       -0.1995
      3 C          62.4971   85.1666    8.3389 C.ar    1  UNL1        0.2145
      4 N          62.2931   85.1473    6.8529 N.pl3   1  UNL1       -0.3274
      5 N          63.2200   84.0374    9.0114 N.ar    1  UNL1       -0.2185
      6 C          63.4239   84.0566   10.4974 C.ar    1  UNL1        0.0639
      7 C          62.9049   85.2051   11.3108 C.ar    1  UNL1        0.0429
      8 C          63.1087   85.2244   12.7967 C.3     1  UNL1        0.1244
      9 N          63.8316   84.0952   13.4692 N.am    1  UNL1       -0.2702
     10 C          64.0355   84.1144   14.9552 C.2     1  UNL1        0.2675
     11 O          64.7584   82.9852   15.6277 O.2     1  UNL1       -0.2682
     12 C          64.3506   82.9467   12.6558 C.3     1  UNL1        0.1004
     13 C          64.1468   82.9274   11.1699 C.3     1  UNL1        0.0672
     14 H          61.8187   85.8885    6.4115 H       1  UNL1        0.1452
     15 H          62.6338   84.3936    6.3190 H       1  UNL1        0.1452
     16 C          63.5165   85.2629   15.7686 C.ar    1  UNL1        0.1413
     17 C          62.5494   85.1681   16.9112 C.ar    1  UNL1        0.0603
     18 S          62.3086   86.5544   17.4311 S.2     1  UNL1       -0.0701
     19 C          63.1270   87.5060   16.6097 C.ar    1  UNL1        0.0888
     20 C          63.1882   88.9945   16.7850 C.3     1  UNL1        0.0594
     21 N          63.8736   86.7078   15.5823 N.ar    1  UNL1       -0.2381
     22 N          61.6629   87.4828   11.4516 N.pl3   1  UNL1       -0.3197
     23 H          60.8349   87.3812   11.9744 H       1  UNL1        0.1481
     24 C          62.4055   88.7859   11.4686 C.3     1  UNL1        0.0728
     25 C          62.1510   89.8082   10.4008 C.3     1  UNL1        0.0196
     26 C          59.7586   90.5242   11.1178 C.3     1  UNL1        0.0001
     27 C          60.7436   90.1811   10.0398 C.3     1  UNL1        0.0017
     28 C          63.4027   89.0669   12.5534 C.3     1  UNL1        0.0512
     29 C          63.7885   90.4815   12.8695 C.3     1  UNL1        0.1389
     30 O          63.1336   91.2002   14.0116 O.3     1  UNL1       -0.3819
     31 H          62.1923   91.3285   13.8157 H       1  UNL1        0.2104
@<TRIPOS>BOND
     1    26    27    1
     2    27    25    1
     3    24    25    1
     4    24    28    1
     5    28    29    1
     6    29    30    1
     7    24    22    1
     8    22     1    1
     9     1     2   ar
    10     2     3   ar
    11     3     4    1
    12     3     5   ar
    13     5     6   ar
    14     6     7   ar
    15     7     8    1
    16     8     9    1
    17     9    10   am
    18    10    11    2
    19    10    16    1
    20    16    17   ar
    21    17    18   ar
    22    18    19   ar
    23    19    20    1
    24    19    21   ar
    25     9    12    1
    26    12    13    1
    27     7     1   ar
    28    21    16   ar
    29    13     6    1
    30    30    31    1
    31    22    23    1
    32     4    14    1
    33     4    15    1
@<TRIPOS>MOLECULE
*****
 31 33 0 0 0
SMALL
GASTEIGER

@<TRIPOS>ATOM
      1 C          62.2037   87.3706   10.8054 C.ar    1  UNL1        0.1300
      2 N          62.0236   88.6283   10.0081 N.ar    1  UNL1       -0.1995
      3 C          62.5653   89.9280   10.5250 C.ar    1  UNL1        0.2145
      4 N          62.3852   91.1858    9.7276 N.pl3   1  UNL1       -0.3274
      5 N          63.2871   89.9701   11.8392 N.ar    1  UNL1       -0.2185
      6 C          63.4672   88.7123   12.6366 C.ar    1  UNL1        0.0639
      7 C          62.9255   87.4126   12.1196 C.ar    1  UNL1        0.0429
      8 C          63.1055   86.1549   12.9169 C.3     1  UNL1        0.1244
      9 N          63.8273   86.1970   14.2312 N.am    1  UNL1       -0.2702
     10 C          64.0074   84.9392   15.0285 C.2     1  UNL1        0.2675
     11 O          64.7292   84.9813   16.3427 O.2     1  UNL1       -0.2682
     12 C          64.3690   87.4967   14.7481 C.3     1  UNL1        0.1004
     13 C          64.1890   88.7544   13.9508 C.3     1  UNL1        0.0672
     14 H          61.9114   91.1582    8.8650 H       1  UNL1        0.1452
     15 H          62.7407   92.0389   10.0669 H       1  UNL1        0.1452
     16 C          63.4657   83.6395   14.5116 C.ar    1  UNL1        0.1413
     17 C          64.1813   82.6856   13.6017 C.ar    1  UNL1        0.0603
     18 S          63.2712   81.5219   13.3415 S.2     1  UNL1       -0.0701
     19 C          61.9931   81.7567   14.0907 C.ar    1  UNL1        0.0888
     20 C          60.8035   80.8432   14.1129 C.3     1  UNL1        0.0594
     21 N          62.1133   83.0654   14.8138 N.ar    1  UNL1       -0.2381
     22 N          61.6619   86.0708   10.2884 N.pl3   1  UNL1       -0.3197
     23 H          60.9856   85.5783   10.8073 H       1  UNL1        0.1481
     24 C          62.1507   85.5216    8.9810 C.3     1  UNL1        0.0728
     25 C          61.4499   85.8856    7.7057 C.3     1  UNL1        0.0196
     26 C          59.3557   87.4232    7.7198 C.3     1  UNL1        0.0001
     27 C          59.9590   86.0502    7.6897 C.3     1  UNL1        0.0017
     28 C          63.3402   84.6083    8.9488 C.3     1  UNL1        0.0512
     29 C          63.6510   83.7396   10.1315 C.3     1  UNL1        0.1389
     30 O          64.7938   82.7701   10.0702 O.3     1  UNL1       -0.3819
     31 H          64.6014   82.0846    9.4114 H       1  UNL1        0.2104
@<TRIPOS>BOND
     1    26    27    1
     2    27    25    1
     3    24    25    1
     4    24    28    1
     5    28    29    1
     6    29    30    1
     7    24    22    1
     8    22     1    1
     9     1     2   ar
    10     2     3   ar
    11     3     4    1
    12     3     5   ar
    13     5     6   ar
    14     6     7   ar
    15     7     8    1
    16     8     9    1
    17     9    10   am
    18    10    11    2
    19    10    16    1
    20    16    17   ar
    21    17    18   ar
    22    18    19   ar
    23    19    20    1
    24    19    21   ar
    25     9    12    1
    26    12    13    1
    27     7     1   ar
    28    21    16   ar
    29    13     6    1
    30    30    31    1
    31    22    23    1
    32     4    14    1
    33     4    15    1
@<TRIPOS>MOLECULE
*****
 31 33 0 0 0
SMALL
GASTEIGER

@<TRIPOS>ATOM
      1 C          62.2662   86.3194   10.6324 C.ar    1  UNL1        0.1300
      2 N          62.0888   86.2932    9.1432 N.ar    1  UNL1       -0.1995
      3 C          62.5962   85.1271    8.3478 C.ar    1  UNL1        0.2145
      4 N          62.4187   85.1010    6.8585 N.pl3   1  UNL1       -0.3274
      5 N          63.2811   83.9871    9.0416 N.ar    1  UNL1       -0.2185
      6 C          63.4585   84.0132   10.5309 C.ar    1  UNL1        0.0639
      7 C          62.9511   85.1794   11.3263 C.ar    1  UNL1        0.0429
      8 C          63.1286   85.2055   12.8155 C.3     1  UNL1        0.1244
      9 N          63.8134   84.0655   13.5093 N.am    1  UNL1       -0.2702
     10 C          63.9909   84.0917   14.9986 C.2     1  UNL1        0.2675
     11 O          64.6758   82.9517   15.6924 O.2     1  UNL1       -0.2682
     12 C          64.3208   82.8994   12.7139 C.3     1  UNL1        0.1004
     13 C          64.1434   82.8733   11.2247 C.3     1  UNL1        0.0672
     14 H          61.9692   85.8492    6.4032 H       1  UNL1        0.1452
     15 H          62.7517   84.3356    6.3365 H       1  UNL1        0.1452
     16 C          63.4835   85.2578   15.7940 C.ar    1  UNL1        0.1413
     17 C          62.5135   85.1908   16.9362 C.ar    1  UNL1        0.0603
     18 S          62.2875   86.5873   17.4350 S.2     1  UNL1       -0.0701
     19 C          63.1178   87.5174   16.6011 C.ar    1  UNL1        0.0888
     20 C          63.1954   89.0075   16.7544 C.3     1  UNL1        0.0594
     21 N          63.8570   86.6957   15.5869 N.ar    1  UNL1       -0.2381
     22 N          61.7588   87.4855   11.4278 N.pl3   1  UNL1       -0.3197
     23 H          60.8911   87.4265   11.8890 H       1  UNL1        0.1481
     24 C          62.5736   88.7415   11.5205 C.3     1  UNL1        0.0728
     25 C          63.5007   88.9501   12.6811 C.3     1  UNL1        0.0196
     26 C          64.9830   90.5980   14.0367 C.3     1  UNL1        0.0001
     27 C          63.7823   90.3379   13.1760 C.3     1  UNL1        0.0017
     28 C          62.4612   89.7889   10.4526 C.3     1  UNL1        0.0512
     29 C          61.1544   90.0053    9.7488 C.3     1  UNL1        0.1389
     30 O          60.5756   88.9192    8.8914 O.3     1  UNL1       -0.3819
     31 H          61.1506   88.7717    8.1243 H       1  UNL1        0.2104
@<TRIPOS>BOND
     1    26    27    1
     2    27    25    1
     3    24    25    1
     4    24    28    1
     5    28    29    1
     6    29    30    1
     7    24    22    1
     8    22     1    1
     9     1     2   ar
    10     2     3   ar
    11     3     4    1
    12     3     5   ar
    13     5     6   ar
    14     6     7   ar
    15     7     8    1
    16     8     9    1
    17     9    10   am
    18    10    11    2
    19    10    16    1
    20    16    17   ar
    21    17    18   ar
    22    18    19   ar
    23    19    20    1
    24    19    21   ar
    25     9    12    1
    26    12    13    1
    27     7     1   ar
    28    21    16   ar
    29    13     6    1
    30    30    31    1
    31    22    23    1
    32     4    14    1
    33     4    15    1
@<TRIPOS>MOLECULE
*****
 31 33 0 0 0
SMALL
GASTEIGER

@<TRIPOS>ATOM
      1 C          62.1499   87.4087   10.8624 C.ar    1  UNL1        0.1300
      2 N          61.9694   88.6778   10.0834 N.ar    1  UNL1       -0.1995
      3 C          62.5441   89.9633   10.6003 C.ar    1  UNL1        0.2145
      4 N          62.3635   91.2324    9.8213 N.pl3   1  UNL1       -0.3274
      5 N          63.2995   89.9797   11.8961 N.ar    1  UNL1       -0.2185
      6 C          63.4801   88.7105   12.6751 C.ar    1  UNL1        0.0639
      7 C          62.9053   87.4250   12.1583 C.ar    1  UNL1        0.0429
      8 C          63.0859   86.1560   12.9372 C.3     1  UNL1        0.1244
      9 N          63.8412   86.1724   14.2330 N.am    1  UNL1       -0.2702
     10 C          64.0218   84.9032   15.0120 C.2     1  UNL1        0.2675
     11 O          64.7771   84.9196   16.3078 O.2     1  UNL1       -0.2682
     12 C          64.4159   87.4579   14.7499 C.3     1  UNL1        0.1004
     13 C          64.2354   88.7269   13.9710 C.3     1  UNL1        0.0672
     14 H          61.8678   91.2216    8.9708 H       1  UNL1        0.1452
     15 H          62.7408   92.0761   10.1605 H       1  UNL1        0.1452
     16 C          63.4470   83.6178   14.4951 C.ar    1  UNL1        0.1413
     17 C          64.1205   82.6681   13.5493 C.ar    1  UNL1        0.0603
     18 S          63.1876   81.5196   13.3029 S.2     1  UNL1       -0.0701
     19 C          61.9375   81.7595   14.0965 C.ar    1  UNL1        0.0888
     20 C          60.7377   80.8605   14.1448 C.3     1  UNL1        0.0594
     21 N          62.0979   83.0562   14.8333 N.ar    1  UNL1       -0.2381
     22 N          61.5752   86.1232   10.3455 N.pl3   1  UNL1       -0.3197
     23 H          61.0060   85.5694   10.9273 H       1  UNL1        0.1481
     24 C          61.8677   85.6815    8.9422 C.3     1  UNL1        0.0728
     25 C          63.1249   84.9204    8.6420 C.3     1  UNL1        0.0196
     26 C          63.9193   82.7920    9.9026 C.3     1  UNL1        0.0001
     27 C          63.9011   84.2849    9.7572 C.3     1  UNL1        0.0017
     28 C          60.9029   86.0011    7.8388 C.3     1  UNL1        0.0512
     29 C          59.6651   86.7960    8.1318 C.3     1  UNL1        0.1389
     30 O          58.3654   86.4276    7.4797 O.3     1  UNL1       -0.3819
     31 H          58.4304   86.5749    6.5232 H       1  UNL1        0.2104
@<TRIPOS>BOND
     1    26    27    1
     2    27    25    1
     3    24    25    1
     4    24    28    1
     5    28    29    1
     6    29    30    1
     7    24    22    1
     8    22     1    1
     9     1     2   ar
    10     2     3   ar
    11     3     4    1
    12     3     5   ar
    13     5     6   ar
    14     6     7   ar
    15     7     8    1
    16     8     9    1
    17     9    10   am
    18    10    11    2
    19    10    16    1
    20    16    17   ar
    21    17    18   ar
    22    18    19   ar
    23    19    20    1
    24    19    21   ar
    25     9    12    1
    26    12    13    1
    27     7     1   ar
    28    21    16   ar
    29    13     6    1
    30    30    31    1
    31    22    23    1
    32     4    14    1
    33     4    15    1
@<TRIPOS>MOLECULE
*****
 31 33 0 0 0
SMALL
GASTEIGER

@<TRIPOS>ATOM
      1 C          62.1402   86.4118   10.6264 C.ar    1  UNL1        0.1300
      2 N          61.9261   86.3895    9.1420 N.ar    1  UNL1       -0.1995
      3 C          62.4314   85.2350    8.3285 C.ar    1  UNL1        0.2145
      4 N          62.2172   85.2128    6.8440 N.pl3   1  UNL1       -0.3274
      5 N          63.1509   84.1027    8.9994 N.ar    1  UNL1       -0.2185
      6 C          63.3651   84.1249   10.4839 C.ar    1  UNL1        0.0639
      7 C          62.8598   85.2794   11.2974 C.ar    1  UNL1        0.0429
      8 C          63.0739   85.3017   12.7819 C.3     1  UNL1        0.1244
      9 N          63.7934   84.1694   13.4528 N.am    1  UNL1       -0.2702
     10 C          64.0076   84.1916   14.9373 C.2     1  UNL1        0.2675
     11 O          64.7271   83.0593   15.6083 O.2     1  UNL1       -0.2682
     12 C          64.2987   83.0149   12.6393 C.3     1  UNL1        0.1004
     13 C          64.0846   82.9926   11.1549 C.3     1  UNL1        0.0672
     14 H          61.7450   85.9560    6.4036 H       1  UNL1        0.1452
     15 H          62.5489   84.4551    6.3100 H       1  UNL1        0.1452
     16 C          63.5023   85.3461   15.7508 C.ar    1  UNL1        0.1413
     17 C          62.5463   85.2609   16.9036 C.ar    1  UNL1        0.0603
     18 S          62.3174   86.6507   17.4196 S.2     1  UNL1       -0.0701
     19 C          63.1319   87.5947   16.5857 C.ar    1  UNL1        0.0888
     20 C          63.2018   89.0836   16.7537 C.3     1  UNL1        0.0594
     21 N          63.8642   86.7884   15.5544 N.ar    1  UNL1       -0.2381
     22 N          61.6349   87.5663   11.4399 N.pl3   1  UNL1       -0.3197
     23 H          61.3572   87.4261   12.3739 H       1  UNL1        0.1481
     24 C          61.5527   88.9343   10.8302 C.3     1  UNL1        0.0728
     25 C          62.7987   89.6173   10.3495 C.3     1  UNL1        0.0196
     26 C          64.1923   91.7893   10.6495 C.3     1  UNL1        0.0001
     27 C          62.8844   91.1148   10.3590 C.3     1  UNL1        0.0017
     28 C          60.2245   89.6194   10.7014 C.3     1  UNL1        0.0512
     29 C          59.3445   89.7819   11.9051 C.3     1  UNL1        0.1389
     30 O          58.9702   88.5847   12.7276 O.3     1  UNL1       -0.3819
     31 H          58.4146   87.9905   12.1994 H       1  UNL1        0.2104
@<TRIPOS>BOND
     1    26    27    1
     2    27    25    1
     3    24    25    1
     4    24    28    1
     5    28    29    1
     6    29    30    1
     7    24    22    1
     8    22     1    1
     9     1     2   ar
    10     2     3   ar
    11     3     4    1
    12     3     5   ar
    13     5     6   ar
    14     6     7   ar
    15     7     8    1
    16     8     9    1
    17     9    10   am
    18    10    11    2
    19    10    16    1
    20    16    17   ar
    21    17    18   ar
    22    18    19   ar
    23    19    20    1
    24    19    21   ar
    25     9    12    1
    26    12    13    1
    27     7     1   ar
    28    21    16   ar
    29    13     6    1
    30    30    31    1
    31    22    23    1
    32     4    14    1
    33     4    15    1
@<TRIPOS>MOLECULE
*****
 31 33 0 0 0
SMALL
GASTEIGER

@<TRIPOS>ATOM
      1 C          61.2410   88.7645   10.9546 C.ar    1  UNL1        0.1300
      2 N          60.5835   89.6003    9.8967 N.ar    1  UNL1       -0.1995
      3 C          60.3346   89.0254    8.5338 C.ar    1  UNL1        0.2145
      4 N          59.6771   89.8612    7.4758 N.pl3   1  UNL1       -0.3274
      5 N          60.7430   87.6147    8.2288 N.ar    1  UNL1       -0.2185
      6 C          61.4005   86.7788    9.2867 C.ar    1  UNL1        0.0639
      7 C          61.6495   87.3537   10.6496 C.ar    1  UNL1        0.0429
      8 C          62.3069   86.5180   11.7075 C.3     1  UNL1        0.1244
      9 N          62.7154   85.1073   11.4025 N.am    1  UNL1       -0.2702
     10 C          63.3729   84.2714   12.4605 C.2     1  UNL1        0.2675
     11 O          63.7813   82.8607   12.1555 O.2     1  UNL1       -0.2682
     12 C          62.4664   84.5324   10.0396 C.3     1  UNL1        0.1004
     13 C          61.8090   85.3681    8.9817 C.3     1  UNL1        0.0672
     14 H          59.4090   90.7871    7.6760 H       1  UNL1        0.1452
     15 H          59.5137   89.4839    6.5813 H       1  UNL1        0.1452
     16 C          63.6218   84.8463   13.8234 C.ar    1  UNL1        0.1413
     17 C          64.9455   85.3077   14.3573 C.ar    1  UNL1        0.0603
     18 S          64.7326   85.8073   15.7556 S.2     1  UNL1       -0.0701
     19 C          63.2774   85.6548   16.0858 C.ar    1  UNL1        0.0888
     20 C          62.6234   86.0303   17.3824 C.3     1  UNL1        0.0594
     21 N          62.5909   85.0609   14.8916 N.ar    1  UNL1       -0.2381
     22 N          61.4900   89.3394   12.3175 N.pl3   1  UNL1       -0.3197
     23 H          60.7623   89.3684   12.9800 H       1  UNL1        0.1481
     24 C          62.8476   89.8702   12.6710 C.3     1  UNL1        0.0728
     25 C          63.7631   89.0657   13.5453 C.3     1  UNL1        0.0196
     26 C          63.3228   89.5076   16.0675 C.3     1  UNL1        0.0001
     27 C          64.2142   89.6159   14.8659 C.3     1  UNL1        0.0017
     28 C          63.2898   91.2057   12.1502 C.3     1  UNL1        0.0512
     29 C          63.8384   91.3239   10.7591 C.3     1  UNL1        0.1389
     30 O          62.9178   91.6203    9.6126 O.3     1  UNL1       -0.3819
     31 H          62.3103   90.8750    9.4847 H       1  UNL1        0.2104
@<TRIPOS>BOND
     1    26    27    1
     2    27    25    1
     3    24    25    1
     4    24    28    1
     5    28    29    1
     6    29    30    1
     7    24    22    1
     8    22     1    1
     9     1     2   ar
    10     2     3   ar
    11     3     4    1
    12     3     5   ar
    13     5     6   ar
    14     6     7   ar
    15     7     8    1
    16     8     9    1
    17     9    10   am
    18    10    11    2
    19    10    16    1
    20    16    17   ar
    21    17    18   ar
    22    18    19   ar
    23    19    20    1
    24    19    21   ar
    25     9    12    1
    26    12    13    1
    27     7     1   ar
    28    21    16   ar
    29    13     6    1
    30    30    31    1
    31    22    23    1
    32     4    14    1
    33     4    15    1
@<TRIPOS>MOLECULE
*****
 31 33 0 0 0
SMALL
GASTEIGER

@<TRIPOS>ATOM
      1 C          60.3572   87.3509   10.2125 C.ar    1  UNL1        0.1300
      2 N          59.6022   88.1279    9.1752 N.ar    1  UNL1       -0.1995
      3 C          59.8247   87.8474    7.7186 C.ar    1  UNL1        0.2145
      4 N          59.0695   88.6245    6.6812 N.pl3   1  UNL1       -0.3274
      5 N          60.8022   86.7898    7.2992 N.ar    1  UNL1       -0.2185
      6 C          61.5573   86.0127    8.3366 C.ar    1  UNL1        0.0639
      7 C          61.3348   86.2932    9.7932 C.ar    1  UNL1        0.0429
      8 C          62.0899   85.5162   10.8305 C.3     1  UNL1        0.1244
      9 N          63.0674   84.4586   10.4112 N.am    1  UNL1       -0.2702
     10 C          63.8225   83.6815   11.4485 C.2     1  UNL1        0.2675
     11 O          64.8001   82.6239   11.0292 O.2     1  UNL1       -0.2682
     12 C          63.2899   84.1781    8.9545 C.3     1  UNL1        0.1004
     13 C          62.5349   84.9551    7.9172 C.3     1  UNL1        0.0672
     14 H          58.4279   89.3186    6.9565 H       1  UNL1        0.1452
     15 H          59.2156   88.4404    5.7252 H       1  UNL1        0.1452
     16 C          63.6001   83.9620   12.9051 C.ar    1  UNL1        0.1413
     17 C          62.8968   83.0634   13.8787 C.ar    1  UNL1        0.0603
     18 S          62.9039   83.7364   15.2193 S.2     1  UNL1       -0.0701
     19 C          63.6115   85.0511   15.0742 C.ar    1  UNL1        0.0888
     20 C          63.8475   86.0507   16.1673 C.3     1  UNL1        0.0594
     21 N          64.0418   85.1905   13.6440 N.ar    1  UNL1       -0.2381
     22 N          60.1347   87.6314   11.6691 N.pl3   1  UNL1       -0.3197
     23 H          60.0624   86.8863   12.3085 H       1  UNL1        0.1481
     24 C          60.0225   89.0472   12.1516 C.3     1  UNL1        0.0728
     25 C          61.1928   89.9772   12.0269 C.3     1  UNL1        0.0196
     26 C          63.6263   90.0055   12.9365 C.3     1  UNL1        0.0001
     27 C          62.5890   89.4288   12.0192 C.3     1  UNL1        0.0017
     28 C          58.7398   89.5332   12.7589 C.3     1  UNL1        0.0512
     29 C          57.8462   88.5757   13.4901 C.3     1  UNL1        0.1389
     30 O          56.4073   88.4378   13.0894 O.3     1  UNL1       -0.3819
     31 H          55.9398   89.2679   13.2720 H       1  UNL1        0.2104
@<TRIPOS>BOND
     1    26    27    1
     2    27    25    1
     3    24    25    1
     4    24    28    1
     5    28    29    1
     6    29    30    1
     7    24    22    1
     8    22     1    1
     9     1     2   ar
    10     2     3   ar
    11     3     4    1
    12     3     5   ar
    13     5     6   ar
    14     6     7   ar
    15     7     8    1
    16     8     9    1
    17     9    10   am
    18    10    11    2
    19    10    16    1
    20    16    17   ar
    21    17    18   ar
    22    18    19   ar
    23    19    20    1
    24    19    21   ar
    25     9    12    1
    26    12    13    1
    27     7     1   ar
    28    21    16   ar
    29    13     6    1
    30    30    31    1
    31    22    23    1
    32     4    14    1
    33     4    15    1
@<TRIPOS>MOLECULE
*****
 31 33 0 0 0
SMALL
GASTEIGER

@<TRIPOS>ATOM
      1 C          61.2305   88.8198   10.9162 C.ar    1  UNL1        0.1300
      2 N          60.5798   89.6388    9.8411 N.ar    1  UNL1       -0.1995
      3 C          60.2958   89.0276    8.5010 C.ar    1  UNL1        0.2145
      4 N          59.6451   89.8467    7.4259 N.pl3   1  UNL1       -0.3274
      5 N          60.6624   87.5975    8.2361 N.ar    1  UNL1       -0.2185
      6 C          61.3131   86.7784    9.3112 C.ar    1  UNL1        0.0639
      7 C          61.5971   87.3896   10.6513 C.ar    1  UNL1        0.0429
      8 C          62.2478   86.5706   11.7264 C.3     1  UNL1        0.1244
      9 N          62.6144   85.1405   11.4614 N.am    1  UNL1       -0.2702
     10 C          63.2651   84.3214   12.5365 C.2     1  UNL1        0.2675
     11 O          63.6317   82.8912   12.2715 O.2     1  UNL1       -0.2682
     12 C          62.3303   84.5293   10.1213 C.3     1  UNL1        0.1004
     13 C          61.6797   85.3483    9.0462 C.3     1  UNL1        0.0672
     14 H          59.4045   90.7853    7.5998 H       1  UNL1        0.1452
     15 H          59.4586   89.4456    6.5464 H       1  UNL1        0.1452
     16 C          63.5491   84.9325   13.8766 C.ar    1  UNL1        0.1413
     17 C          64.8677   85.4831   14.3329 C.ar    1  UNL1        0.0603
     18 S          64.6980   85.9913   15.7340 S.2     1  UNL1       -0.0701
     19 C          63.2745   85.7548   16.1436 C.ar    1  UNL1        0.0888
     20 C          62.6676   86.1103   17.4684 C.3     1  UNL1        0.0594
     21 N          62.5645   85.1005   14.9956 N.ar    1  UNL1       -0.2381
     22 N          61.5145   89.4310   12.2563 N.pl3   1  UNL1       -0.3197
     23 H          60.8107   89.4581   12.9441 H       1  UNL1        0.1481
     24 C          62.8710   90.0008   12.5484 C.3     1  UNL1        0.0728
     25 C          63.4099   91.1219   11.7102 C.3     1  UNL1        0.0196
     26 C          65.4474   92.6115   11.0940 C.3     1  UNL1        0.0001
     27 C          64.6844   91.8076   12.1047 C.3     1  UNL1        0.0017
     28 C          63.6886   89.4494   13.6788 C.3     1  UNL1        0.0512
     29 C          63.4897   89.9695   15.0716 C.3     1  UNL1        0.1389
     30 O          62.3503   89.4632   15.9056 O.3     1  UNL1       -0.3819
     31 H          61.5102   89.7400   15.5074 H       1  UNL1        0.2104
@<TRIPOS>BOND
     1    26    27    1
     2    27    25    1
     3    24    25    1
     4    24    28    1
     5    28    29    1
     6    29    30    1
     7    24    22    1
     8    22     1    1
     9     1     2   ar
    10     2     3   ar
    11     3     4    1
    12     3     5   ar
    13     5     6   ar
    14     6     7   ar
    15     7     8    1
    16     8     9    1
    17     9    10   am
    18    10    11    2
    19    10    16    1
    20    16    17   ar
    21    17    18   ar
    22    18    19   ar
    23    19    20    1
    24    19    21   ar
    25     9    12    1
    26    12    13    1
    27     7     1   ar
    28    21    16   ar
    29    13     6    1
    30    30    31    1
    31    22    23    1
    32     4    14    1
    33     4    15    1
@<TRIPOS>MOLECULE
*****
 31 33 0 0 0
SMALL
GASTEIGER

@<TRIPOS>ATOM
      1 C          60.9682   87.7496   10.5861 C.ar    1  UNL1        0.1300
      2 N          60.2318   87.9052    9.2887 N.ar    1  UNL1       -0.1995
      3 C          60.4150   89.1464    8.4665 C.ar    1  UNL1        0.2145
      4 N          59.6785   89.3020    7.1690 N.pl3   1  UNL1       -0.3274
      5 N          61.3346   90.2319    8.9418 N.ar    1  UNL1       -0.2185
      6 C          62.0711   90.0762   10.2393 C.ar    1  UNL1        0.0639
      7 C          61.8879   88.8351   11.0615 C.ar    1  UNL1        0.0429
      8 C          62.6243   88.6794   12.3589 C.3     1  UNL1        0.1244
      9 N          63.5440   89.7649   12.8342 N.am    1  UNL1       -0.2702
     10 C          64.2805   89.6093   14.1317 C.2     1  UNL1        0.2675
     11 O          65.2001   90.6948   14.6070 O.2     1  UNL1       -0.2682
     12 C          63.7272   91.0061   12.0120 C.3     1  UNL1        0.1004
     13 C          62.9908   91.1617   10.7146 C.3     1  UNL1        0.0672
     14 H          59.0749   88.5895    6.8571 H       1  UNL1        0.1452
     15 H          59.7988   90.1166    6.6294 H       1  UNL1        0.1452
     16 C          64.0972   88.3681   14.9539 C.ar    1  UNL1        0.1413
     17 C          64.7106   87.0278   14.6758 C.ar    1  UNL1        0.0603
     18 S          64.2609   86.0807   15.7485 S.2     1  UNL1       -0.0701
     19 C          63.3697   86.8357   16.6896 C.ar    1  UNL1        0.0888
     20 C          62.6976   86.2753   17.9080 C.3     1  UNL1        0.0594
     21 N          63.2685   88.2494   16.1985 N.ar    1  UNL1       -0.2381
     22 N          60.7850   86.5084   11.4083 N.pl3   1  UNL1       -0.3197
     23 H          59.9875   86.4077   11.9767 H       1  UNL1        0.1481
     24 C          61.8169   85.4207   11.3646 C.3     1  UNL1        0.0728
     25 C          62.1125   84.7188   10.0723 C.3     1  UNL1        0.0196
     26 C          62.7587   85.0502    7.5778 C.3     1  UNL1        0.0001
     27 C          62.9472   85.3950    9.0254 C.3     1  UNL1        0.0017
     28 C          62.5533   85.0348   12.6131 C.3     1  UNL1        0.0512
     29 C          63.2734   83.7208   12.6834 C.3     1  UNL1        0.1389
     30 O          64.7679   83.6773   12.5629 O.3     1  UNL1       -0.3819
     31 H          65.0287   83.9578   11.6717 H       1  UNL1        0.2104
@<TRIPOS>BOND
     1    26    27    1
     2    27    25    1
     3    24    25    1
     4    24    28    1
     5    28    29    1
     6    29    30    1
     7    24    22    1
     8    22     1    1
     9     1     2   ar
    10     2     3   ar
    11     3     4    1
    12     3     5   ar
    13     5     6   ar
    14     6     7   ar
    15     7     8    1
    16     8     9    1
    17     9    10   am
    18    10    11    2
    19    10    16    1
    20    16    17   ar
    21    17    18   ar
    22    18    19   ar
    23    19    20    1
    24    19    21   ar
    25     9    12    1
    26    12    13    1
    27     7     1   ar
    28    21    16   ar
    29    13     6    1
    30    30    31    1
    31    22    23    1
    32     4    14    1
    33     4    15    1
