@<TRIPOS>MOLECULE
*****
 37 41 0 0 0
SMALL
GASTEIGER

@<TRIPOS>ATOM
      1 C          64.4339   91.0031   12.1217 C.2     1  UNL1        0.3216
      2 N          63.5421   90.3774   11.0905 N.2     1  UNL1       -0.0599
      3 C          62.9872   89.0018   11.3141 C.3     1  UNL1        0.2689
      4 C          63.3241   88.2520   12.5688 C.2     1  UNL1        0.1165
      5 C          64.2158   88.8778   13.6000 C.2     1  UNL1        0.1177
      6 C          64.5526   88.1281   14.8547 C.3     1  UNL1        0.0754
      7 N          64.7707   90.2534   13.3763 N.pl3   1  UNL1       -0.2027
      8 H          65.3559   90.6641   14.0531 H       1  UNL1        0.2982
      9 C          62.0955   88.3761   10.2829 C.ar    1  UNL1        0.0582
     10 C          62.5106   87.1040    9.6051 C.ar    1  UNL1        0.0033
     11 C          61.6189   86.4782    8.5739 C.ar    1  UNL1        0.0114
     12 C          60.3121   87.1246    8.2205 C.ar    1  UNL1        0.0599
     13 CL         59.4204   86.4989    7.1894 Cl      1  UNL1       -0.0822
     14 C          59.8972   88.3967    8.8984 C.ar    1  UNL1        0.0408
     15 C          60.7889   89.0225    9.9297 C.ar    1  UNL1        0.1413
     16 F          60.3739   90.2946   10.6075 F       1  UNL1       -0.2043
     17 C          66.0984   95.1297   11.4506 C.ar    1  UNL1        0.2250
     18 C          65.4090   94.4079   10.3310 C.ar    1  UNL1        0.0580
     19 C          64.8542   93.0323   10.5547 C.ar    1  UNL1        0.0137
     20 C          64.9887   92.3787   11.8980 C.ar    1  UNL1        0.1014
     21 C          65.6781   93.1005   13.0176 C.ar    1  UNL1        0.1094
     22 N          66.2330   94.4761   12.7940 N.ar    1  UNL1       -0.2099
     23 C          67.2810   96.8558    9.9105 C.3     1  UNL1        0.2542
     24 O          66.6533   96.5053   11.2269 O.3     1  UNL1       -0.4561
     25 C          62.7692   86.8765   12.7924 C.2     1  UNL1        0.2527
     26 O          61.3191   86.6003   12.5259 O.2     1  UNL1       -0.2699
     27 N          63.6644   85.7772   13.2825 N.am    1  UNL1       -0.2836
     28 H          64.6161   85.9585   13.4573 H       1  UNL1        0.1549
     29 C          63.1095   84.4017   13.5060 C.2     1  UNL1        0.0322
     30 C          62.2741   84.1180   14.7192 C.2     1  UNL1        0.0122
     31 C          61.7192   82.7424   14.9428 C.2     1  UNL1        0.0216
     32 C          61.9997   81.6505   13.9532 C.2     1  UNL1        0.1008
     33 N          61.5909   80.2081   13.9074 N.2     1  UNL1       -0.1482
     34 N          62.1736   79.6003   12.6661 N.2     1  UNL1       -0.1467
     35 C          62.9425   80.6671   11.9446 C.2     1  UNL1        0.1198
     36 C          62.8351   81.9343   12.7401 C.2     1  UNL1        0.0238
     37 C          63.3900   83.3098   12.5165 C.3     1  UNL1        0.0707
@<TRIPOS>BOND
     1    23    24    1
     2    24    17    1
     3    17    18   ar
     4    18    19   ar
     5    19    20   ar
     6    20     1    1
     7     1     2    2
     8     2     3    1
     9     3     9    1
    10     9    10   ar
    11    10    11   ar
    12    11    12   ar
    13    12    13    1
    14    12    14   ar
    15    14    15   ar
    16    15    16    1
    17     3     4    1
    18     4    25    1
    19    25    26    2
    20    25    27   am
    21    27    29    1
    22    29    30    2
    23    30    31    1
    24    31    32    2
    25    32    33    1
    26    33    34    2
    27    34    35    1
    28    35    36    2
    29    36    37    1
    30     4     5    2
    31     5     6    1
    32     5     7    1
    33    20    21   ar
    34    21    22   ar
    35    22    17   ar
    36     7     1    1
    37    15     9   ar
    38    37    29    1
    39    36    32    1
    40    27    28    1
    41     7     8    1
@<TRIPOS>MOLECULE
*****
 37 41 0 0 0
SMALL
GASTEIGER

@<TRIPOS>ATOM
      1 C          64.4977   89.4597   13.4037 C.2     1  UNL1        0.3216
      2 N          63.6310   89.0258   12.2589 N.2     1  UNL1       -0.0599
      3 C          63.1611   87.6041   12.1709 C.3     1  UNL1        0.2689
      4 C          63.5577   86.6162   13.2277 C.2     1  UNL1        0.1165
      5 C          64.4245   87.0502   14.3726 C.2     1  UNL1        0.1177
      6 C          64.8212   86.0624   15.4293 C.3     1  UNL1        0.0754
      7 N          64.8944   88.4719   14.4604 N.pl3   1  UNL1       -0.2027
      8 H          65.4632   88.7568   15.2118 H       1  UNL1        0.2982
      9 C          62.2944   87.1702   11.0261 C.ar    1  UNL1        0.0582
     10 C          62.7943   86.1423   10.0546 C.ar    1  UNL1        0.0033
     11 C          61.9276   85.7084    8.9098 C.ar    1  UNL1        0.0114
     12 C          60.5610   86.3023    8.7364 C.ar    1  UNL1        0.0599
     13 CL         59.6944   85.8683    7.5917 Cl      1  UNL1       -0.0822
     14 C          60.0612   87.3300    9.7079 C.ar    1  UNL1        0.0408
     15 C          60.9280   87.7640   10.8528 C.ar    1  UNL1        0.1413
     16 F          60.4281   88.7918   11.8243 F       1  UNL1       -0.2043
     17 C          65.9077   93.7250   13.6676 C.ar    1  UNL1        0.2250
     18 C          66.0293   92.8198   14.8575 C.ar    1  UNL1        0.0580
     19 C          65.5594   91.3981   14.7695 C.ar    1  UNL1        0.0137
     20 C          64.9677   90.8815   13.4916 C.ar    1  UNL1        0.1014
     21 C          64.8460   91.7866   12.3018 C.ar    1  UNL1        0.1094
     22 N          65.3160   93.2084   12.3897 N.ar    1  UNL1       -0.2099
     23 C          66.4097   96.0036   12.5248 C.3     1  UNL1        0.2542
     24 O          66.3777   95.1467   13.7556 O.3     1  UNL1       -0.4561
     25 C          63.0877   85.1945   13.1397 C.2     1  UNL1        0.2527
     26 O          61.7346   84.8180   13.6663 O.2     1  UNL1       -0.2699
     27 N          63.9710   84.1493   12.5252 N.am    1  UNL1       -0.2836
     28 H          64.8591   84.3965   12.1796 H       1  UNL1        0.1549
     29 C          63.5010   82.7276   12.4372 C.2     1  UNL1        0.0322
     30 C          62.9989   82.0263   13.6646 C.2     1  UNL1        0.0122
     31 C          62.5289   80.6045   13.5765 C.2     1  UNL1        0.0216
     32 C          62.5610   79.8840   12.2612 C.2     1  UNL1        0.1008
     33 N          62.1654   78.4911   11.8699 N.2     1  UNL1       -0.1482
     34 N          62.4229   78.3315   10.4009 N.2     1  UNL1       -0.1467
     35 C          62.9777   79.6258    9.8842 C.2     1  UNL1        0.1198
     36 C          63.0630   80.5854   11.0340 C.2     1  UNL1        0.0238
     37 C          63.5330   82.0071   11.1220 C.3     1  UNL1        0.0707
@<TRIPOS>BOND
     1    23    24    1
     2    24    17    1
     3    17    18   ar
     4    18    19   ar
     5    19    20   ar
     6    20     1    1
     7     1     2    2
     8     2     3    1
     9     3     9    1
    10     9    10   ar
    11    10    11   ar
    12    11    12   ar
    13    12    13    1
    14    12    14   ar
    15    14    15   ar
    16    15    16    1
    17     3     4    1
    18     4    25    1
    19    25    26    2
    20    25    27   am
    21    27    29    1
    22    29    30    2
    23    30    31    1
    24    31    32    2
    25    32    33    1
    26    33    34    2
    27    34    35    1
    28    35    36    2
    29    36    37    1
    30     4     5    2
    31     5     6    1
    32     5     7    1
    33    20    21   ar
    34    21    22   ar
    35    22    17   ar
    36     7     1    1
    37    15     9   ar
    38    37    29    1
    39    36    32    1
    40    27    28    1
    41     7     8    1
@<TRIPOS>MOLECULE
*****
 37 41 0 0 0
SMALL
GASTEIGER

@<TRIPOS>ATOM
      1 C          60.5618   92.6572    2.3017 C.2     1  UNL1        0.3216
      2 N          59.5916   92.9020    1.1843 N.2     1  UNL1       -0.0599
      3 C          60.0404   93.6175   -0.0553 C.3     1  UNL1        0.2689
      4 C          61.4594   94.0883   -0.1774 C.2     1  UNL1        0.1165
      5 C          62.4296   93.8435    0.9401 C.2     1  UNL1        0.1177
      6 C          63.8485   94.3142    0.8180 C.3     1  UNL1        0.0754
      7 N          61.9807   93.1279    2.1796 N.pl3   1  UNL1       -0.2027
      8 H          62.6175   92.9672    2.9131 H       1  UNL1        0.2982
      9 C          59.0702   93.8623   -1.1728 C.ar    1  UNL1        0.0582
     10 C          58.8473   92.8085   -2.2168 C.ar    1  UNL1        0.0033
     11 C          57.8771   93.0532   -3.3343 C.ar    1  UNL1        0.0114
     12 C          57.1297   94.3517   -3.4078 C.ar    1  UNL1        0.0599
     13 CL         56.1595   94.5965   -4.5253 Cl      1  UNL1       -0.0822
     14 C          57.3526   95.4055   -2.3638 C.ar    1  UNL1        0.0408
     15 C          58.3229   95.1607   -1.2463 C.ar    1  UNL1        0.1413
     16 F          58.5457   96.2145   -0.2023 F       1  UNL1       -0.2043
     17 C          59.2152   90.5105    6.0204 C.ar    1  UNL1        0.2250
     18 C          58.2214   91.2665    5.1893 C.ar    1  UNL1        0.0580
     19 C          58.6703   91.9820    3.9498 C.ar    1  UNL1        0.0137
     20 C          60.1130   91.9416    3.5413 C.ar    1  UNL1        0.1014
     21 C          61.1068   91.1857    4.3724 C.ar    1  UNL1        0.1094
     22 N          60.6580   90.4701    5.6120 N.ar    1  UNL1       -0.2099
     23 C          59.4239   88.5084    7.6630 C.3     1  UNL1        0.2542
     24 O          58.7664   89.7950    7.2600 O.3     1  UNL1       -0.4561
     25 C          61.9081   94.8038   -1.4170 C.2     1  UNL1        0.2527
     26 O          61.8392   96.3007   -1.4855 O.2     1  UNL1       -0.2699
     27 N          62.4258   94.0225   -2.5881 N.am    1  UNL1       -0.2836
     28 H          62.4711   93.0400   -2.5432 H       1  UNL1        0.1549
     29 C          62.8746   94.7380   -3.8277 C.2     1  UNL1        0.0322
     30 C          61.8673   95.1616   -4.8555 C.2     1  UNL1        0.0122
     31 C          62.3162   95.8772   -6.0951 C.2     1  UNL1        0.0216
     32 C          63.7722   96.1691   -6.3069 C.2     1  UNL1        0.1008
     33 N          64.5068   96.8533   -7.4215 N.2     1  UNL1       -0.1482
     34 N          65.9680   96.8525   -7.0826 N.2     1  UNL1       -0.1467
     35 C          66.1365   96.1679   -5.7587 C.2     1  UNL1        0.1198
     36 C          64.7793   95.7456   -5.2792 C.2     1  UNL1        0.0238
     37 C          64.3306   95.0300   -4.0397 C.3     1  UNL1        0.0707
@<TRIPOS>BOND
     1    23    24    1
     2    24    17    1
     3    17    18   ar
     4    18    19   ar
     5    19    20   ar
     6    20     1    1
     7     1     2    2
     8     2     3    1
     9     3     9    1
    10     9    10   ar
    11    10    11   ar
    12    11    12   ar
    13    12    13    1
    14    12    14   ar
    15    14    15   ar
    16    15    16    1
    17     3     4    1
    18     4    25    1
    19    25    26    2
    20    25    27   am
    21    27    29    1
    22    29    30    2
    23    30    31    1
    24    31    32    2
    25    32    33    1
    26    33    34    2
    27    34    35    1
    28    35    36    2
    29    36    37    1
    30     4     5    2
    31     5     6    1
    32     5     7    1
    33    20    21   ar
    34    21    22   ar
    35    22    17   ar
    36     7     1    1
    37    15     9   ar
    38    37    29    1
    39    36    32    1
    40    27    28    1
    41     7     8    1
@<TRIPOS>MOLECULE
*****
 37 41 0 0 0
SMALL
GASTEIGER

@<TRIPOS>ATOM
      1 C          63.1499   82.6766   12.0644 C.2     1  UNL1        0.3216
      2 N          62.4383   83.7637   11.3149 N.2     1  UNL1       -0.0599
      3 C          62.5918   85.1934   11.7418 C.3     1  UNL1        0.2689
      4 C          63.4569   85.5360   12.9184 C.2     1  UNL1        0.1165
      5 C          64.1685   84.4488   13.6680 C.2     1  UNL1        0.1177
      6 C          65.0335   84.7914   14.8444 C.3     1  UNL1        0.0754
      7 N          64.0149   83.0192   13.2409 N.pl3   1  UNL1       -0.2027
      8 H          64.4819   82.3056   13.7328 H       1  UNL1        0.2982
      9 C          61.8802   86.2805   10.9923 C.ar    1  UNL1        0.0582
     10 C          60.8366   87.1081   11.6824 C.ar    1  UNL1        0.0033
     11 C          60.1250   88.1951   10.9328 C.ar    1  UNL1        0.0114
     12 C          60.4569   88.4547    9.4932 C.ar    1  UNL1        0.0599
     13 CL         59.7453   89.5418    8.7436 Cl      1  UNL1       -0.0822
     14 C          61.5004   87.6271    8.8031 C.ar    1  UNL1        0.0408
     15 C          62.2120   86.5400    9.5527 C.ar    1  UNL1        0.1413
     16 F          63.2556   85.7124    8.8626 F       1  UNL1       -0.2043
     17 C          62.6893   78.3874   10.7832 C.ar    1  UNL1        0.2250
     18 C          63.0262   79.4408    9.7699 C.ar    1  UNL1        0.0580
     19 C          63.1797   80.8705   10.1970 C.ar    1  UNL1        0.0137
     20 C          62.9963   81.2468   11.6374 C.ar    1  UNL1        0.1014
     21 C          62.6594   80.1935   12.6507 C.ar    1  UNL1        0.1094
     22 N          62.5059   78.7637   12.2236 N.ar    1  UNL1       -0.2099
     23 C          63.7240   76.1941    9.8514 C.3     1  UNL1        0.2542
     24 O          62.5357   76.9577   10.3561 O.3     1  UNL1       -0.4561
     25 C          63.6104   86.9657   13.3453 C.2     1  UNL1        0.2527
     26 O          63.4520   88.0693   12.3418 O.2     1  UNL1       -0.2699
     27 N          63.9222   87.2918   14.7759 N.am    1  UNL1       -0.2836
     28 H          64.0261   86.5675   15.4345 H       1  UNL1        0.1549
     29 C          64.0757   88.7216   15.2029 C.2     1  UNL1        0.0322
     30 C          63.2666   89.2531   16.3488 C.2     1  UNL1        0.0122
     31 C          63.4201   90.6829   16.7757 C.2     1  UNL1        0.0216
     32 C          64.3827   91.5811   16.0568 C.2     1  UNL1        0.1008
     33 N          64.7455   93.0236   16.2506 N.2     1  UNL1       -0.1482
     34 N          65.7788   93.3835   15.2245 N.2     1  UNL1       -0.1467
     35 C          66.0546   92.1635   14.3966 C.2     1  UNL1        0.1198
     36 C          65.1917   91.0495   14.9110 C.2     1  UNL1        0.0238
     37 C          65.0382   89.6198   14.4840 C.3     1  UNL1        0.0707
@<TRIPOS>BOND
     1    23    24    1
     2    24    17    1
     3    17    18   ar
     4    18    19   ar
     5    19    20   ar
     6    20     1    1
     7     1     2    2
     8     2     3    1
     9     3     9    1
    10     9    10   ar
    11    10    11   ar
    12    11    12   ar
    13    12    13    1
    14    12    14   ar
    15    14    15   ar
    16    15    16    1
    17     3     4    1
    18     4    25    1
    19    25    26    2
    20    25    27   am
    21    27    29    1
    22    29    30    2
    23    30    31    1
    24    31    32    2
    25    32    33    1
    26    33    34    2
    27    34    35    1
    28    35    36    2
    29    36    37    1
    30     4     5    2
    31     5     6    1
    32     5     7    1
    33    20    21   ar
    34    21    22   ar
    35    22    17   ar
    36     7     1    1
    37    15     9   ar
    38    37    29    1
    39    36    32    1
    40    27    28    1
    41     7     8    1
