@<TRIPOS>MOLECULE
*****
 34 39 0 0 0
SMALL
GASTEIGER

@<TRIPOS>ATOM
      1 O          62.0361   84.8204   12.1102 O.2     1  UNL1       -0.2526
      2 C          62.8806   85.2615   13.2688 C.2     1  UNL1        0.3039
      3 N          63.2148   84.2934   14.3648 N.am    1  UNL1       -0.2901
      4 N          63.3908   86.6707   13.3315 N.am    1  UNL1       -0.2642
      5 C          63.0566   87.6387   12.2355 C.3     1  UNL1        0.0954
      6 C          63.5668   89.0479   12.2981 C.3     1  UNL1        0.0309
      7 C          64.4112   89.4890   13.4567 C.3     1  UNL1        0.0827
      8 C          64.7454   88.5209   14.5527 C.3     1  UNL1        0.0309
      9 C          64.2352   87.1118   14.4901 C.3     1  UNL1        0.0954
     10 H          63.7690   84.5830   15.1252 H       1  UNL1        0.1509
     11 C          64.9214   90.8982   13.5193 C.ar    1  UNL1        0.2362
     12 N          65.2056   91.7860   12.3442 N.ar    1  UNL1       -0.1895
     13 C          65.6968   93.1035   12.8666 C.ar    1  UNL1        0.2210
     14 N          65.7163   93.0299   14.3646 N.ar    1  UNL1       -0.0544
     15 O          65.2370   91.6670   14.7681 O.2     1  UNL1       -0.3370
     16 C          66.0982   94.2868   12.0367 C.ar    1  UNL1        0.1202
     17 N          65.7371   95.6727   12.4825 N.ar    1  UNL1       -0.2406
     18 C          66.1385   96.8560   11.6526 C.ar    1  UNL1        0.0989
     19 C          66.9008   96.6533   10.3768 C.ar    1  UNL1        0.0207
     20 C          67.2619   95.2674    9.9309 C.ar    1  UNL1        0.0031
     21 C          68.0243   95.0647    8.6551 C.ar    1  UNL1        0.0001
     22 C          68.3853   93.6788    8.2092 C.ar    1  UNL1        0.0000
     23 C          67.9840   92.4955    9.0391 C.ar    1  UNL1        0.0000
     24 C          67.2216   92.6982   10.3149 C.ar    1  UNL1        0.0016
     25 C          66.8606   94.0841   10.7608 C.ar    1  UNL1        0.0208
     26 C          62.7046   82.8843   14.3022 C.3     1  UNL1        0.0774
     27 C          62.0188   81.7208   14.9549 C.3     1  UNL1        0.0259
     28 C          62.5067   81.6070   13.5411 C.3     1  UNL1        0.0420
     29 C          62.6741   80.8038   12.2853 C.ar    1  UNL1       -0.0208
     30 C          62.4270   79.3244   12.3027 C.ar    1  UNL1       -0.0042
     31 C          62.5945   78.5212   11.0470 C.ar    1  UNL1       -0.0003
     32 C          63.0090   79.1973    9.7739 C.ar    1  UNL1       -0.0000
     33 C          63.2561   80.6767    9.7564 C.ar    1  UNL1       -0.0003
     34 C          63.0886   81.4799   11.0122 C.ar    1  UNL1       -0.0042
@<TRIPOS>BOND
     1     1     2    2
     2     2     3   am
     3     3    26    1
     4    26    27    1
     5    27    28    1
     6    28    29    1
     7    29    30   ar
     8    30    31   ar
     9    31    32   ar
    10    32    33   ar
    11    33    34   ar
    12     2     4   am
    13     4     5    1
    14     5     6    1
    15     6     7    1
    16     7    11    1
    17    11    12   ar
    18    12    13   ar
    19    13    16    1
    20    16    17   ar
    21    17    18   ar
    22    18    19   ar
    23    19    20   ar
    24    20    21   ar
    25    21    22   ar
    26    22    23   ar
    27    23    24   ar
    28    24    25   ar
    29    13    14   ar
    30    14    15   ar
    31     7     8    1
    32     8     9    1
    33    28    26    1
    34    34    29   ar
    35     9     4    1
    36    15    11   ar
    37    25    16   ar
    38    25    20   ar
    39     3    10    1
@<TRIPOS>MOLECULE
*****
 34 39 0 0 0
SMALL
GASTEIGER

@<TRIPOS>ATOM
      1 O          66.5845   93.5186   14.0990 O.2     1  UNL1       -0.2526
      2 C          65.6631   92.7633   13.1877 C.2     1  UNL1        0.3039
      3 N          65.2129   93.3805   11.8968 N.am    1  UNL1       -0.2901
      4 N          65.1917   91.3908   13.5673 N.am    1  UNL1       -0.2642
      5 C          65.6419   90.7736   14.8582 C.3     1  UNL1        0.0954
      6 C          65.1706   89.4011   15.2378 C.3     1  UNL1        0.0309
      7 C          64.2492   88.6458   14.3266 C.3     1  UNL1        0.0827
      8 C          63.7990   89.2630   13.0357 C.3     1  UNL1        0.0309
      9 C          64.2703   90.6355   12.6560 C.3     1  UNL1        0.0954
     10 H          64.6081   92.8848   11.2987 H       1  UNL1        0.1509
     11 C          63.7779   87.2734   14.7062 C.ar    1  UNL1        0.2362
     12 N          63.5828   86.1178   13.7700 N.ar    1  UNL1       -0.1895
     13 C          63.1033   84.9457   14.5739 C.ar    1  UNL1        0.2210
     14 N          63.0020   85.3769   16.0070 N.ar    1  UNL1       -0.0544
     15 O          63.4189   86.8154   16.0888 O.2     1  UNL1       -0.3370
     16 C          62.7816   83.5818   14.0386 C.ar    1  UNL1        0.1202
     17 N          62.0320   82.5999   14.8894 N.ar    1  UNL1       -0.2406
     18 C          61.7102   81.2361   14.3541 C.ar    1  UNL1        0.0989
     19 C          62.1381   80.8542   12.9681 C.ar    1  UNL1        0.0207
     20 C          62.8878   81.8362   12.1173 C.ar    1  UNL1        0.0031
     21 C          63.3156   81.4543   10.7313 C.ar    1  UNL1        0.0001
     22 C          64.0652   82.4362    9.8805 C.ar    1  UNL1        0.0000
     23 C          64.3870   83.8000   10.4158 C.ar    1  UNL1        0.0000
     24 C          63.9591   84.1819   11.8018 C.ar    1  UNL1        0.0016
     25 C          63.2095   83.2000   12.6525 C.ar    1  UNL1        0.0208
     26 C          65.6842   94.7530   11.5171 C.3     1  UNL1        0.0774
     27 C          66.1385   96.1265   11.9138 C.3     1  UNL1        0.0259
     28 C          66.0461   95.7569   10.4630 C.3     1  UNL1        0.0420
     29 C          66.2018   96.1231    9.0167 C.ar    1  UNL1       -0.0208
     30 C          67.5624   96.1234    8.3853 C.ar    1  UNL1       -0.0042
     31 C          67.7180   96.4896    6.9390 C.ar    1  UNL1       -0.0003
     32 C          66.5130   96.8554    6.1241 C.ar    1  UNL1       -0.0000
     33 C          65.1524   96.8551    6.7555 C.ar    1  UNL1       -0.0003
     34 C          64.9968   96.4889    8.2018 C.ar    1  UNL1       -0.0042
@<TRIPOS>BOND
     1     1     2    2
     2     2     3   am
     3     3    26    1
     4    26    27    1
     5    27    28    1
     6    28    29    1
     7    29    30   ar
     8    30    31   ar
     9    31    32   ar
    10    32    33   ar
    11    33    34   ar
    12     2     4   am
    13     4     5    1
    14     5     6    1
    15     6     7    1
    16     7    11    1
    17    11    12   ar
    18    12    13   ar
    19    13    16    1
    20    16    17   ar
    21    17    18   ar
    22    18    19   ar
    23    19    20   ar
    24    20    21   ar
    25    21    22   ar
    26    22    23   ar
    27    23    24   ar
    28    24    25   ar
    29    13    14   ar
    30    14    15   ar
    31     7     8    1
    32     8     9    1
    33    28    26    1
    34    34    29   ar
    35     9     4    1
    36    15    11   ar
    37    25    16   ar
    38    25    20   ar
    39     3    10    1
@<TRIPOS>MOLECULE
*****
 34 39 0 0 0
SMALL
GASTEIGER

@<TRIPOS>ATOM
      1 O          58.0139   88.8794    7.5972 O.2     1  UNL1       -0.2526
      2 C          59.3515   89.4008    7.1625 C.2     1  UNL1        0.3039
      3 N          60.5921   88.9896    7.8987 N.am    1  UNL1       -0.2901
      4 N          59.4486   90.3334    5.9917 N.am    1  UNL1       -0.2642
      5 C          58.2081   90.7446    5.2555 C.3     1  UNL1        0.0954
      6 C          58.3051   91.6772    4.0847 C.3     1  UNL1        0.0309
      7 C          59.6427   92.1986    3.6500 C.3     1  UNL1        0.0827
      8 C          60.8833   91.7874    4.3862 C.3     1  UNL1        0.0309
      9 C          60.7862   90.8548    5.5570 C.3     1  UNL1        0.0954
     10 H          61.4700   89.3318    7.6134 H       1  UNL1        0.1509
     11 C          59.7397   93.1311    2.4791 C.ar    1  UNL1        0.2362
     12 N          59.6545   92.7424    1.0329 N.ar    1  UNL1       -0.1895
     13 C          59.8011   93.9871    0.2089 C.ar    1  UNL1        0.2210
     14 N          59.9769   95.1452    1.1458 N.ar    1  UNL1       -0.0544
     15 O          59.9390   94.6162    2.5489 O.2     1  UNL1       -0.3370
     16 C          59.7762   94.0609   -1.2891 C.ar    1  UNL1        0.1202
     17 N          60.8802   94.7616   -2.0240 N.ar    1  UNL1       -0.2406
     18 C          60.8553   94.8354   -3.5220 C.ar    1  UNL1        0.0989
     19 C          59.7265   94.2084   -4.2851 C.ar    1  UNL1        0.0207
     20 C          58.6223   93.5076   -3.5502 C.ar    1  UNL1        0.0031
     21 C          57.4935   92.8806   -4.3134 C.ar    1  UNL1        0.0001
     22 C          56.3894   92.1798   -3.5785 C.ar    1  UNL1        0.0000
     23 C          56.4143   92.1061   -2.0805 C.ar    1  UNL1        0.0000
     24 C          57.5432   92.7331   -1.3174 C.ar    1  UNL1        0.0016
     25 C          58.6472   93.4338   -2.0523 C.ar    1  UNL1        0.0208
     26 C          60.4951   88.0571    9.0695 C.3     1  UNL1        0.0774
     27 C          59.8117   87.6250   10.3330 C.3     1  UNL1        0.0259
     28 C          61.0103   86.8738    9.8340 C.3     1  UNL1        0.0420
     29 C          61.9998   85.7569    9.9873 C.ar    1  UNL1       -0.0208
     30 C          62.2072   85.1174   11.3281 C.ar    1  UNL1       -0.0042
     31 C          63.1967   84.0005   11.4814 C.ar    1  UNL1       -0.0003
     32 C          63.9788   83.5231   10.2938 C.ar    1  UNL1       -0.0000
     33 C          63.7714   84.1626    8.9529 C.ar    1  UNL1       -0.0003
     34 C          62.7819   85.2795    8.7996 C.ar    1  UNL1       -0.0042
@<TRIPOS>BOND
     1     1     2    2
     2     2     3   am
     3     3    26    1
     4    26    27    1
     5    27    28    1
     6    28    29    1
     7    29    30   ar
     8    30    31   ar
     9    31    32   ar
    10    32    33   ar
    11    33    34   ar
    12     2     4   am
    13     4     5    1
    14     5     6    1
    15     6     7    1
    16     7    11    1
    17    11    12   ar
    18    12    13   ar
    19    13    16    1
    20    16    17   ar
    21    17    18   ar
    22    18    19   ar
    23    19    20   ar
    24    20    21   ar
    25    21    22   ar
    26    22    23   ar
    27    23    24   ar
    28    24    25   ar
    29    13    14   ar
    30    14    15   ar
    31     7     8    1
    32     8     9    1
    33    28    26    1
    34    34    29   ar
    35     9     4    1
    36    15    11   ar
    37    25    16   ar
    38    25    20   ar
    39     3    10    1
@<TRIPOS>MOLECULE
*****
 34 39 0 0 0
SMALL
GASTEIGER

@<TRIPOS>ATOM
      1 O          61.9034   87.3054   11.7860 O.2     1  UNL1       -0.2526
      2 C          61.5294   86.7150   10.4588 C.2     1  UNL1        0.3039
      3 N          61.6697   85.2395   10.2280 N.am    1  UNL1       -0.2901
      4 N          61.0152   87.6000    9.3623 N.am    1  UNL1       -0.2642
      5 C          60.8750   89.0755    9.5931 C.3     1  UNL1        0.0954
      6 C          60.3608   89.9606    8.4967 C.3     1  UNL1        0.0309
      7 C          59.9869   89.3702    7.1694 C.3     1  UNL1        0.0827
      8 C          60.1271   87.8947    6.9386 C.3     1  UNL1        0.0309
      9 C          60.6413   87.0096    8.0350 C.3     1  UNL1        0.0954
     10 H          61.4242   84.8520    9.3569 H       1  UNL1        0.1509
     11 C          59.4727   90.2553    6.0730 C.ar    1  UNL1        0.2362
     12 N          60.2969   90.8888    4.9916 N.ar    1  UNL1       -0.1895
     13 C          59.3777   91.6874    4.1157 C.ar    1  UNL1        0.2210
     14 N          57.9853   91.5474    4.6557 N.ar    1  UNL1       -0.0544
     15 O          58.0440   90.6624    5.8654 O.2     1  UNL1       -0.3370
     16 C          59.7801   92.4857    2.9112 C.ar    1  UNL1        0.1202
     17 N          58.7423   93.2269    2.1217 N.ar    1  UNL1       -0.2406
     18 C          59.1448   94.0253    0.9173 C.ar    1  UNL1        0.0989
     19 C          60.5851   94.0823    0.5023 C.ar    1  UNL1        0.0207
     20 C          61.6230   93.3410    1.2919 C.ar    1  UNL1        0.0031
     21 C          63.0633   93.3981    0.8769 C.ar    1  UNL1        0.0001
     22 C          64.1011   92.6568    1.6665 C.ar    1  UNL1        0.0000
     23 C          63.6987   91.8585    2.8709 C.ar    1  UNL1        0.0000
     24 C          62.2584   91.8014    3.2858 C.ar    1  UNL1        0.0016
     25 C          61.2205   92.5427    2.4963 C.ar    1  UNL1        0.0208
     26 C          62.1839   84.3543   11.3244 C.3     1  UNL1        0.0774
     27 C          62.5983   82.9977   11.8121 C.3     1  UNL1        0.0259
     28 C          62.6601   84.1779   12.7358 C.3     1  UNL1        0.0420
     29 C          62.9708   84.7574   14.0840 C.ar    1  UNL1       -0.0208
     30 C          62.1183   84.4044   15.2667 C.ar    1  UNL1       -0.0042
     31 C          62.4289   84.9839   16.6149 C.ar    1  UNL1       -0.0003
     32 C          63.5921   85.9164   16.7805 C.ar    1  UNL1       -0.0000
     33 C          64.4447   86.2694   15.5979 C.ar    1  UNL1       -0.0003
     34 C          64.1340   85.6899   14.2497 C.ar    1  UNL1       -0.0042
@<TRIPOS>BOND
     1     1     2    2
     2     2     3   am
     3     3    26    1
     4    26    27    1
     5    27    28    1
     6    28    29    1
     7    29    30   ar
     8    30    31   ar
     9    31    32   ar
    10    32    33   ar
    11    33    34   ar
    12     2     4   am
    13     4     5    1
    14     5     6    1
    15     6     7    1
    16     7    11    1
    17    11    12   ar
    18    12    13   ar
    19    13    16    1
    20    16    17   ar
    21    17    18   ar
    22    18    19   ar
    23    19    20   ar
    24    20    21   ar
    25    21    22   ar
    26    22    23   ar
    27    23    24   ar
    28    24    25   ar
    29    13    14   ar
    30    14    15   ar
    31     7     8    1
    32     8     9    1
    33    28    26    1
    34    34    29   ar
    35     9     4    1
    36    15    11   ar
    37    25    16   ar
    38    25    20   ar
    39     3    10    1
@<TRIPOS>MOLECULE
*****
 34 39 0 0 0
SMALL
GASTEIGER

@<TRIPOS>ATOM
      1 O          58.0936   90.7074    5.8403 O.2     1  UNL1       -0.2526
      2 C          59.5505   90.6276    5.4926 C.2     1  UNL1        0.3039
      3 N          60.4552   89.7087    6.2588 N.am    1  UNL1       -0.2901
      4 N          60.1029   91.4667    4.3787 N.am    1  UNL1       -0.2642
      5 C          59.1982   92.3856    3.6124 C.3     1  UNL1        0.0954
      6 C          59.7505   93.2247    2.4985 C.3     1  UNL1        0.0309
      7 C          61.2074   93.1449    2.1508 C.3     1  UNL1        0.0827
      8 C          62.1121   92.2260    2.9170 C.3     1  UNL1        0.0309
      9 C          61.5599   91.3869    4.0310 C.3     1  UNL1        0.0954
     10 H          61.4115   89.6563    6.0306 H       1  UNL1        0.1509
     11 C          61.7597   93.9840    1.0368 C.ar    1  UNL1        0.2362
     12 N          61.2951   93.9725   -0.3894 N.ar    1  UNL1       -0.1895
     13 C          62.1217   94.9633   -1.1542 C.ar    1  UNL1        0.2210
     14 N          63.0971   95.5873   -0.2007 N.ar    1  UNL1       -0.0544
     15 O          62.8734   94.9821    1.1535 O.2     1  UNL1       -0.3370
     16 C          61.9951   95.2754   -2.6159 C.ar    1  UNL1        0.1202
     17 N          61.1742   96.4481   -3.0641 N.ar    1  UNL1       -0.2406
     18 C          61.0476   96.7602   -4.5258 C.ar    1  UNL1        0.0989
     19 C          61.7420   95.8996   -5.5393 C.ar    1  UNL1        0.0207
     20 C          62.5630   94.7269   -5.0912 C.ar    1  UNL1        0.0031
     21 C          63.2573   93.8663   -6.1047 C.ar    1  UNL1        0.0001
     22 C          64.0783   92.6937   -5.6565 C.ar    1  UNL1        0.0000
     23 C          64.2048   92.3816   -4.1948 C.ar    1  UNL1        0.0000
     24 C          63.5105   93.2421   -3.1813 C.ar    1  UNL1        0.0016
     25 C          62.6896   94.4148   -3.6295 C.ar    1  UNL1        0.0208
     26 C          59.9030   88.8695    7.3728 C.3     1  UNL1        0.0774
     27 C          58.7485   88.1576    8.0134 C.3     1  UNL1        0.0259
     28 C          60.1009   88.1281    8.6616 C.3     1  UNL1        0.0420
     29 C          60.9960   87.6830    9.7800 C.ar    1  UNL1       -0.0208
     30 C          61.0429   86.2360   10.1724 C.ar    1  UNL1       -0.0042
     31 C          61.9380   85.7909   11.2908 C.ar    1  UNL1       -0.0003
     32 C          62.7861   86.7927   12.0168 C.ar    1  UNL1       -0.0000
     33 C          62.7391   88.2397   11.6243 C.ar    1  UNL1       -0.0003
     34 C          61.8441   88.6848   10.5059 C.ar    1  UNL1       -0.0042
@<TRIPOS>BOND
     1     1     2    2
     2     2     3   am
     3     3    26    1
     4    26    27    1
     5    27    28    1
     6    28    29    1
     7    29    30   ar
     8    30    31   ar
     9    31    32   ar
    10    32    33   ar
    11    33    34   ar
    12     2     4   am
    13     4     5    1
    14     5     6    1
    15     6     7    1
    16     7    11    1
    17    11    12   ar
    18    12    13   ar
    19    13    16    1
    20    16    17   ar
    21    17    18   ar
    22    18    19   ar
    23    19    20   ar
    24    20    21   ar
    25    21    22   ar
    26    22    23   ar
    27    23    24   ar
    28    24    25   ar
    29    13    14   ar
    30    14    15   ar
    31     7     8    1
    32     8     9    1
    33    28    26    1
    34    34    29   ar
    35     9     4    1
    36    15    11   ar
    37    25    16   ar
    38    25    20   ar
    39     3    10    1
@<TRIPOS>MOLECULE
*****
 34 39 0 0 0
SMALL
GASTEIGER

@<TRIPOS>ATOM
      1 O          58.2067   91.5436    5.1921 O.2     1  UNL1       -0.2526
      2 C          59.6354   91.2667    4.8287 C.2     1  UNL1        0.3039
      3 N          60.4151   90.2328    5.5858 N.am    1  UNL1       -0.2901
      4 N          60.2847   92.0238    3.7083 N.am    1  UNL1       -0.2642
      5 C          59.5051   93.0578    2.9512 C.3     1  UNL1        0.0954
      6 C          60.1542   93.8149    1.8308 C.3     1  UNL1        0.0309
      7 C          61.5829   93.5381    1.4674 C.3     1  UNL1        0.0827
      8 C          62.3626   92.5041    2.2245 C.3     1  UNL1        0.0309
      9 C          61.7134   91.7470    3.3450 C.3     1  UNL1        0.0954
     10 H          61.3528   90.0511    5.3473 H       1  UNL1        0.1509
     11 C          62.2321   94.2952    0.3470 C.ar    1  UNL1        0.2362
     12 N          61.8298   94.2494   -1.0973 N.ar    1  UNL1       -0.1895
     13 C          62.7465   95.1569   -1.8629 C.ar    1  UNL1        0.2210
     14 N          63.7153   95.7636   -0.8916 N.ar    1  UNL1       -0.0544
     15 O          63.3974   95.2311    0.4742 O.2     1  UNL1       -0.3370
     16 C          62.7022   95.4128   -3.3402 C.ar    1  UNL1        0.1202
     17 N          61.9560   96.5996   -3.8738 N.ar    1  UNL1       -0.2406
     18 C          61.9117   96.8555   -5.3511 C.ar    1  UNL1        0.0989
     19 C          62.6136   95.9246   -6.2949 C.ar    1  UNL1        0.0207
     20 C          63.3598   94.7378   -5.7614 C.ar    1  UNL1        0.0031
     21 C          64.0616   93.8069   -6.7052 C.ar    1  UNL1        0.0001
     22 C          64.8078   92.6201   -6.1716 C.ar    1  UNL1        0.0000
     23 C          64.8521   92.3642   -4.6943 C.ar    1  UNL1        0.0000
     24 C          64.1503   93.2951   -3.7505 C.ar    1  UNL1        0.0016
     25 C          63.4041   94.4819   -4.2840 C.ar    1  UNL1        0.0208
     26 C          59.7659   89.4757    6.7063 C.3     1  UNL1        0.0774
     27 C          58.5277   89.0082    7.4121 C.3     1  UNL1        0.0259
     28 C          59.8798   88.6317    7.9411 C.3     1  UNL1        0.0420
     29 C          60.7263   87.9270    8.9594 C.ar    1  UNL1       -0.0208
     30 C          61.1732   88.6518   10.1943 C.ar    1  UNL1       -0.0042
     31 C          62.0196   87.9471   11.2126 C.ar    1  UNL1       -0.0003
     32 C          62.4192   86.5176   10.9960 C.ar    1  UNL1       -0.0000
     33 C          61.9724   85.7928    9.7611 C.ar    1  UNL1       -0.0003
     34 C          61.1259   86.4975    8.7428 C.ar    1  UNL1       -0.0042
@<TRIPOS>BOND
     1     1     2    2
     2     2     3   am
     3     3    26    1
     4    26    27    1
     5    27    28    1
     6    28    29    1
     7    29    30   ar
     8    30    31   ar
     9    31    32   ar
    10    32    33   ar
    11    33    34   ar
    12     2     4   am
    13     4     5    1
    14     5     6    1
    15     6     7    1
    16     7    11    1
    17    11    12   ar
    18    12    13   ar
    19    13    16    1
    20    16    17   ar
    21    17    18   ar
    22    18    19   ar
    23    19    20   ar
    24    20    21   ar
    25    21    22   ar
    26    22    23   ar
    27    23    24   ar
    28    24    25   ar
    29    13    14   ar
    30    14    15   ar
    31     7     8    1
    32     8     9    1
    33    28    26    1
    34    34    29   ar
    35     9     4    1
    36    15    11   ar
    37    25    16   ar
    38    25    20   ar
    39     3    10    1
@<TRIPOS>MOLECULE
*****
 34 39 0 0 0
SMALL
GASTEIGER

@<TRIPOS>ATOM
      1 O          58.1694   91.3947    5.3411 O.2     1  UNL1       -0.2526
      2 C          59.6067   91.2094    4.9540 C.2     1  UNL1        0.3039
      3 N          60.4811   90.2780    5.7400 N.am    1  UNL1       -0.2901
      4 N          60.1697   91.9556    3.7808 N.am    1  UNL1       -0.2642
      5 C          59.2952   92.8870    2.9947 C.3     1  UNL1        0.0954
      6 C          59.8581   93.6332    1.8216 C.3     1  UNL1        0.0309
      7 C          61.2953   93.4480    1.4344 C.3     1  UNL1        0.0827
      8 C          62.1698   92.5166    2.2205 C.3     1  UNL1        0.0309
      9 C          61.6069   91.7704    3.3936 C.3     1  UNL1        0.0954
     10 H          61.4245   90.1565    5.4859 H       1  UNL1        0.1509
     11 C          61.8582   94.1942    0.2612 C.ar    1  UNL1        0.2362
     12 N          62.1345   93.6220   -1.0975 N.ar    1  UNL1       -0.1895
     13 C          62.6906   94.7177   -1.9577 C.ar    1  UNL1        0.2210
     14 N          62.7580   95.9673   -1.1306 N.ar    1  UNL1       -0.0544
     15 O          62.2435   95.6438    0.2408 O.2     1  UNL1       -0.3370
     16 C          63.1063   94.5869   -3.3930 C.ar    1  UNL1        0.1202
     17 N          64.5616   94.5106   -3.7484 N.ar    1  UNL1       -0.2406
     18 C          64.9773   94.3798   -5.1837 C.ar    1  UNL1        0.0989
     19 C          63.9378   94.3254   -6.2636 C.ar    1  UNL1        0.0207
     20 C          62.4824   94.4017   -5.9083 C.ar    1  UNL1        0.0031
     21 C          61.4429   94.3473   -6.9882 C.ar    1  UNL1        0.0001
     22 C          59.9876   94.4237   -6.6329 C.ar    1  UNL1        0.0000
     23 C          59.5719   94.5545   -5.1976 C.ar    1  UNL1        0.0000
     24 C          60.6114   94.6089   -4.1177 C.ar    1  UNL1        0.0016
     25 C          62.0667   94.5325   -4.4730 C.ar    1  UNL1        0.0208
     26 C          59.9183   89.5318    6.9132 C.3     1  UNL1        0.0774
     27 C          58.9089   88.5809    7.4850 C.3     1  UNL1        0.0259
     28 C          59.9527   89.1902    8.3733 C.3     1  UNL1        0.0420
     29 C          60.5753   89.3448    9.7293 C.ar    1  UNL1       -0.0208
     30 C          62.0512   89.1423    9.9044 C.ar    1  UNL1       -0.0042
     31 C          62.6738   89.2969   11.2604 C.ar    1  UNL1       -0.0003
     32 C          61.8204   89.6539   12.4412 C.ar    1  UNL1       -0.0000
     33 C          60.3445   89.8563   12.2661 C.ar    1  UNL1       -0.0003
     34 C          59.7220   89.7017   10.9101 C.ar    1  UNL1       -0.0042
@<TRIPOS>BOND
     1     1     2    2
     2     2     3   am
     3     3    26    1
     4    26    27    1
     5    27    28    1
     6    28    29    1
     7    29    30   ar
     8    30    31   ar
     9    31    32   ar
    10    32    33   ar
    11    33    34   ar
    12     2     4   am
    13     4     5    1
    14     5     6    1
    15     6     7    1
    16     7    11    1
    17    11    12   ar
    18    12    13   ar
    19    13    16    1
    20    16    17   ar
    21    17    18   ar
    22    18    19   ar
    23    19    20   ar
    24    20    21   ar
    25    21    22   ar
    26    22    23   ar
    27    23    24   ar
    28    24    25   ar
    29    13    14   ar
    30    14    15   ar
    31     7     8    1
    32     8     9    1
    33    28    26    1
    34    34    29   ar
    35     9     4    1
    36    15    11   ar
    37    25    16   ar
    38    25    20   ar
    39     3    10    1
@<TRIPOS>MOLECULE
*****
 34 39 0 0 0
SMALL
GASTEIGER

@<TRIPOS>ATOM
      1 O          58.1153   90.6720    5.8900 O.2     1  UNL1       -0.2526
      2 C          59.5690   90.5798    5.5318 C.2     1  UNL1        0.3039
      3 N          60.4634   89.6258    6.2665 N.am    1  UNL1       -0.2901
      4 N          60.1283   91.4416    4.4389 N.am    1  UNL1       -0.2642
      5 C          59.2338   92.3957    3.7042 C.3     1  UNL1        0.0954
      6 C          59.7930   93.2575    2.6112 C.3     1  UNL1        0.0309
      7 C          61.2466   93.1653    2.2530 C.3     1  UNL1        0.0827
      8 C          62.1411   92.2113    2.9877 C.3     1  UNL1        0.0309
      9 C          61.5819   91.3494    4.0806 C.3     1  UNL1        0.0954
     10 H          61.4175   89.5653    6.0314 H       1  UNL1        0.1509
     11 C          61.8058   94.0272    1.1600 C.ar    1  UNL1        0.2362
     12 N          62.0291   93.6112   -0.2637 N.ar    1  UNL1       -0.1895
     13 C          62.6012   94.7832   -1.0048 C.ar    1  UNL1        0.2210
     14 N          62.7314   95.9235   -0.0390 N.ar    1  UNL1       -0.0544
     15 O          62.2398   95.4563    1.2989 O.2     1  UNL1       -0.3370
     16 C          62.9770   94.8102   -2.4567 C.ar    1  UNL1        0.1202
     17 N          64.4168   94.9410   -2.8564 N.ar    1  UNL1       -0.2406
     18 C          64.7926   94.9680   -4.3083 C.ar    1  UNL1        0.0989
     19 C          63.7287   94.8642   -5.3605 C.ar    1  UNL1        0.0207
     20 C          62.2888   94.7333   -4.9608 C.ar    1  UNL1        0.0031
     21 C          61.2248   94.6295   -6.0130 C.ar    1  UNL1        0.0001
     22 C          59.7850   94.4986   -5.6133 C.ar    1  UNL1        0.0000
     23 C          59.4092   94.4717   -4.1614 C.ar    1  UNL1        0.0000
     24 C          60.4732   94.5755   -3.1092 C.ar    1  UNL1        0.0016
     25 C          61.9130   94.7063   -3.5089 C.ar    1  UNL1        0.0208
     26 C          59.9043   88.7639    7.3594 C.3     1  UNL1        0.0774
     27 C          58.7367   88.2994    8.1786 C.3     1  UNL1        0.0259
     28 C          60.1033   87.7358    8.4333 C.3     1  UNL1        0.0420
     29 C          61.0071   86.8167    9.2004 C.ar    1  UNL1       -0.0208
     30 C          60.9228   86.7588   10.6969 C.ar    1  UNL1       -0.0042
     31 C          61.8267   85.8398   11.4640 C.ar    1  UNL1       -0.0003
     32 C          62.8149   84.9787   10.7346 C.ar    1  UNL1       -0.0000
     33 C          62.8992   85.0366    9.2382 C.ar    1  UNL1       -0.0003
     34 C          61.9953   85.9557    8.4710 C.ar    1  UNL1       -0.0042
@<TRIPOS>BOND
     1     1     2    2
     2     2     3   am
     3     3    26    1
     4    26    27    1
     5    27    28    1
     6    28    29    1
     7    29    30   ar
     8    30    31   ar
     9    31    32   ar
    10    32    33   ar
    11    33    34   ar
    12     2     4   am
    13     4     5    1
    14     5     6    1
    15     6     7    1
    16     7    11    1
    17    11    12   ar
    18    12    13   ar
    19    13    16    1
    20    16    17   ar
    21    17    18   ar
    22    18    19   ar
    23    19    20   ar
    24    20    21   ar
    25    21    22   ar
    26    22    23   ar
    27    23    24   ar
    28    24    25   ar
    29    13    14   ar
    30    14    15   ar
    31     7     8    1
    32     8     9    1
    33    28    26    1
    34    34    29   ar
    35     9     4    1
    36    15    11   ar
    37    25    16   ar
    38    25    20   ar
    39     3    10    1
@<TRIPOS>MOLECULE
*****
 34 39 0 0 0
SMALL
GASTEIGER

@<TRIPOS>ATOM
      1 O          62.4099   88.1297   12.0987 O.2     1  UNL1       -0.2526
      2 C          61.8346   87.3761   10.9364 C.2     1  UNL1        0.3039
      3 N          61.8256   85.8761   10.9454 N.am    1  UNL1       -0.2901
      4 N          61.2683   88.1224    9.7649 N.am    1  UNL1       -0.2642
      5 C          61.2773   89.6223    9.7558 C.3     1  UNL1        0.0954
      6 C          60.7110   90.3687    8.5844 C.3     1  UNL1        0.0309
      7 C          60.1357   89.6151    7.4220 C.3     1  UNL1        0.0827
      8 C          60.1267   88.1151    7.4311 C.3     1  UNL1        0.0309
      9 C          60.6930   87.3688    8.6025 C.3     1  UNL1        0.0954
     10 H          61.4480   85.3815   10.1825 H       1  UNL1        0.1509
     11 C          59.5694   90.3615    6.2506 C.ar    1  UNL1        0.2362
     12 N          60.3588   90.9937    5.1428 N.ar    1  UNL1       -0.1895
     13 C          59.3916   91.6296    4.1888 C.ar    1  UNL1        0.2210
     14 N          58.0045   91.3904    4.7070 N.ar    1  UNL1       -0.0544
     15 O          58.1143   90.6067    5.9812 O.2     1  UNL1       -0.3370
     16 C          59.7489   92.3740    2.9365 C.ar    1  UNL1        0.1202
     17 N          58.6760   93.0439    2.1303 N.ar    1  UNL1       -0.2406
     18 C          59.0332   93.7883    0.8780 C.ar    1  UNL1        0.0989
     19 C          60.4634   93.8628    0.4319 C.ar    1  UNL1        0.0207
     20 C          61.5364   93.1929    1.2382 C.ar    1  UNL1        0.0031
     21 C          62.9666   93.2674    0.7921 C.ar    1  UNL1        0.0001
     22 C          64.0395   92.5975    1.5983 C.ar    1  UNL1        0.0000
     23 C          63.6822   91.8531    2.8506 C.ar    1  UNL1        0.0000
     24 C          62.2521   91.7786    3.2967 C.ar    1  UNL1        0.0016
     25 C          61.1792   92.4485    2.4905 C.ar    1  UNL1        0.0208
     26 C          62.3919   85.1298   12.1169 C.3     1  UNL1        0.0774
     27 C          63.1483   85.1260   13.4122 C.3     1  UNL1        0.0259
     28 C          62.6163   83.8409   12.8505 C.3     1  UNL1        0.0420
     29 C          62.4388   82.3547   12.9499 C.ar    1  UNL1       -0.0208
     30 C          61.6925   81.7644   14.1094 C.ar    1  UNL1       -0.0042
     31 C          61.5149   80.2782   14.2087 C.ar    1  UNL1       -0.0003
     32 C          62.0837   79.3824   13.1486 C.ar    1  UNL1       -0.0000
     33 C          62.8300   79.9727   11.9891 C.ar    1  UNL1       -0.0003
     34 C          63.0076   81.4589   11.8897 C.ar    1  UNL1       -0.0042
@<TRIPOS>BOND
     1     1     2    2
     2     2     3   am
     3     3    26    1
     4    26    27    1
     5    27    28    1
     6    28    29    1
     7    29    30   ar
     8    30    31   ar
     9    31    32   ar
    10    32    33   ar
    11    33    34   ar
    12     2     4   am
    13     4     5    1
    14     5     6    1
    15     6     7    1
    16     7    11    1
    17    11    12   ar
    18    12    13   ar
    19    13    16    1
    20    16    17   ar
    21    17    18   ar
    22    18    19   ar
    23    19    20   ar
    24    20    21   ar
    25    21    22   ar
    26    22    23   ar
    27    23    24   ar
    28    24    25   ar
    29    13    14   ar
    30    14    15   ar
    31     7     8    1
    32     8     9    1
    33    28    26    1
    34    34    29   ar
    35     9     4    1
    36    15    11   ar
    37    25    16   ar
    38    25    20   ar
    39     3    10    1
