@<TRIPOS>MOLECULE
*****
 16 17 0 0 0
SMALL
GASTEIGER

@<TRIPOS>ATOM
      1 C          63.8547   82.9524   11.8583 C.2     1  UNL1        0.1223
      2 C          64.2349   82.9731   10.4075 C.2     1  UNL1        0.0343
      3 C          63.6711   84.0255    9.4994 C.2     1  UNL1        0.0232
      4 C          62.7270   85.0571   10.0421 C.2     1  UNL1        0.0975
      5 N          62.0166   86.2077    9.3931 N.2     1  UNL1       -0.2200
      6 C          61.1972   86.8982   10.4429 C.2     1  UNL1        0.1898
      7 N          61.4013   86.1742   11.7407 N.2     1  UNL1       -0.2236
      8 C          62.3468   85.0363   11.4929 C.2     1  UNL1        0.0863
      9 C          62.9106   83.9839   12.4010 C.3     1  UNL1        0.1112
     10 C          63.5010   81.0776   13.6219 C.3     1  UNL1        0.2520
     11 O          64.4185   81.9000   12.7664 O.2     1  UNL1       -0.4753
     12 S          60.3266   88.1014   10.2319 S.3     1  UNL1       -0.0757
     13 C          60.4023   88.8651    8.9431 C.3     1  UNL1        0.0651
     14 C          59.5475   88.4590    7.7794 C.3     1  UNL1        0.0112
     15 C          59.2995   89.4240    6.6581 C.3     1  UNL1        0.0009
     16 C          58.9408   87.0879    7.7369 C.3     1  UNL1        0.0009
@<TRIPOS>BOND
     1    10    11    1
     2    11     1    1
     3     1     2    2
     4     2     3    1
     5     3     4    2
     6     4     5    1
     7     5     6    2
     8     6    12    1
     9    12    13    1
    10    13    14    1
    11    14    15    1
    12    14    16    1
    13     6     7    1
    14     7     8    2
    15     8     9    1
    16     9     1    1
    17     8     4    1
@<TRIPOS>MOLECULE
*****
 16 17 0 0 0
SMALL
GASTEIGER

@<TRIPOS>ATOM
      1 C          61.2653   86.5841    9.0140 C.2     1  UNL1        0.1223
      2 C          62.2662   85.7715    8.2474 C.2     1  UNL1        0.0343
      3 C          63.1482   84.7946    8.9670 C.2     1  UNL1        0.0232
      4 C          63.0293   84.6303   10.4531 C.2     1  UNL1        0.0975
      5 N          63.7575   83.7526   11.4274 N.2     1  UNL1       -0.2200
      6 C          63.2066   84.0227   12.7962 C.2     1  UNL1        0.1898
      7 N          62.1379   85.0674   12.6679 N.2     1  UNL1       -0.2236
      8 C          62.0283   85.4429   11.2198 C.2     1  UNL1        0.0863
      9 C          61.1463   86.4198   10.5002 C.3     1  UNL1        0.1112
     10 C          59.0254   87.1367    7.8193 C.3     1  UNL1        0.2520
     11 O          60.3833   87.5610    8.2944 O.2     1  UNL1       -0.4753
     12 S          63.6472   83.3638   14.0698 S.3     1  UNL1       -0.0757
     13 C          63.6024   81.8698   14.1956 C.3     1  UNL1        0.0651
     14 C          62.4903   81.0959   13.5519 C.3     1  UNL1        0.0112
     15 C          62.7412   80.3380   12.2820 C.3     1  UNL1        0.0009
     16 C          61.1274   81.0799   14.1781 C.3     1  UNL1        0.0009
@<TRIPOS>BOND
     1    10    11    1
     2    11     1    1
     3     1     2    2
     4     2     3    1
     5     3     4    2
     6     4     5    1
     7     5     6    2
     8     6    12    1
     9    12    13    1
    10    13    14    1
    11    14    15    1
    12    14    16    1
    13     6     7    1
    14     7     8    2
    15     8     9    1
    16     9     1    1
    17     8     4    1
@<TRIPOS>MOLECULE
*****
 16 17 0 0 0
SMALL
GASTEIGER

@<TRIPOS>ATOM
      1 C          65.0364   91.6640   13.5482 C.2     1  UNL1        0.1223
      2 C          64.9662   90.4846   14.4722 C.2     1  UNL1        0.0343
      3 C          64.1835   89.2676   14.0769 C.2     1  UNL1        0.0232
      4 C          63.4709   89.2301   12.7576 C.2     1  UNL1        0.0975
      5 N          62.6281   88.1768   12.1016 N.2     1  UNL1       -0.2200
      6 C          62.1774   88.7053   10.7721 C.2     1  UNL1        0.1898
      7 N          62.7416   90.0852   10.6063 N.2     1  UNL1       -0.2236
      8 C          63.5411   90.4095   11.8335 C.2     1  UNL1        0.0863
      9 C          64.3239   91.6265   12.2288 C.3     1  UNL1        0.1112
     10 C          66.3493   93.8069   12.8892 C.3     1  UNL1        0.2520
     11 O          65.8192   92.8810   13.9435 O.2     1  UNL1       -0.4753
     12 S          61.3140   87.9810    9.7821 S.3     1  UNL1       -0.0757
     13 C          61.0965   86.5030    9.9167 C.3     1  UNL1        0.0651
     14 C          62.2491   85.5572    9.7522 C.3     1  UNL1        0.0112
     15 C          62.7058   84.7225   10.9117 C.3     1  UNL1        0.0009
     16 C          62.9450   85.4463    8.4281 C.3     1  UNL1        0.0009
@<TRIPOS>BOND
     1    10    11    1
     2    11     1    1
     3     1     2    2
     4     2     3    1
     5     3     4    2
     6     4     5    1
     7     5     6    2
     8     6    12    1
     9    12    13    1
    10    13    14    1
    11    14    15    1
    12    14    16    1
    13     6     7    1
    14     7     8    2
    15     8     9    1
    16     9     1    1
    17     8     4    1
@<TRIPOS>MOLECULE
*****
 16 17 0 0 0
SMALL
GASTEIGER

@<TRIPOS>ATOM
      1 C          64.9575   91.5400   13.8218 C.2     1  UNL1        0.1223
      2 C          64.9250   90.2738   14.6252 C.2     1  UNL1        0.0343
      3 C          64.1844   89.0762   14.1081 C.2     1  UNL1        0.0232
      4 C          63.4763   89.1449   12.7876 C.2     1  UNL1        0.0975
      5 N          62.6709   88.1338   12.0267 N.2     1  UNL1       -0.2200
      6 C          62.2056   88.7752   10.7531 C.2     1  UNL1        0.1898
      7 N          62.7235   90.1826   10.7267 N.2     1  UNL1       -0.2236
      8 C          63.5089   90.4111   11.9841 C.2     1  UNL1        0.0863
      9 C          64.2495   91.6087   12.5013 C.3     1  UNL1        0.1112
     10 C          66.4979   92.6361   15.6038 C.3     1  UNL1        0.2520
     11 O          65.6981   92.7375   14.3390 O.2     1  UNL1       -0.4753
     12 S          61.3692   88.1234    9.6920 S.3     1  UNL1       -0.0757
     13 C          60.1942   88.8521    9.1103 C.3     1  UNL1        0.0651
     14 C          59.5531   88.3550    7.8486 C.3     1  UNL1        0.0112
     15 C          59.3583   89.2863    6.6890 C.3     1  UNL1        0.0009
     16 C          59.1068   86.9266    7.7467 C.3     1  UNL1        0.0009
@<TRIPOS>BOND
     1    10    11    1
     2    11     1    1
     3     1     2    2
     4     2     3    1
     5     3     4    2
     6     4     5    1
     7     5     6    2
     8     6    12    1
     9    12    13    1
    10    13    14    1
    11    14    15    1
    12    14    16    1
    13     6     7    1
    14     7     8    2
    15     8     9    1
    16     9     1    1
    17     8     4    1
@<TRIPOS>MOLECULE
*****
 16 17 0 0 0
SMALL
GASTEIGER

@<TRIPOS>ATOM
      1 C          63.8406   83.6746   12.4335 C.2     1  UNL1        0.1223
      2 C          64.2877   83.2814   11.0567 C.2     1  UNL1        0.0343
      3 C          63.6848   83.9452    9.8543 C.2     1  UNL1        0.0232
      4 C          62.6349   85.0021   10.0285 C.2     1  UNL1        0.0975
      5 N          61.8655   85.8255    9.0385 N.2     1  UNL1       -0.2200
      6 C          60.9429   86.7276    9.8034 C.2     1  UNL1        0.1898
      7 N          61.1420   86.4617   11.2662 N.2     1  UNL1       -0.2236
      8 C          62.1878   85.3953   11.4053 C.2     1  UNL1        0.0863
      9 C          62.7907   84.7316   12.6077 C.3     1  UNL1        0.1112
     10 C          63.9702   83.3776   15.0113 C.3     1  UNL1        0.2520
     11 O          64.4435   83.0108   13.6360 O.2     1  UNL1       -0.4753
     12 S          59.9886   87.7211    9.2097 S.3     1  UNL1       -0.0757
     13 C          60.4185   89.1433    9.0039 C.3     1  UNL1        0.0651
     14 C          60.8494   89.9738   10.1763 C.3     1  UNL1        0.0112
     15 C          59.8439   90.3962   11.2062 C.3     1  UNL1        0.0009
     16 C          62.2857   90.3818   10.3189 C.3     1  UNL1        0.0009
@<TRIPOS>BOND
     1    10    11    1
     2    11     1    1
     3     1     2    2
     4     2     3    1
     5     3     4    2
     6     4     5    1
     7     5     6    2
     8     6    12    1
     9    12    13    1
    10    13    14    1
    11    14    15    1
    12    14    16    1
    13     6     7    1
    14     7     8    2
    15     8     9    1
    16     9     1    1
    17     8     4    1
@<TRIPOS>MOLECULE
*****
 16 17 0 0 0
SMALL
GASTEIGER

@<TRIPOS>ATOM
      1 C          61.3026   86.3973    8.8704 C.2     1  UNL1        0.1223
      2 C          62.3431   85.5342    8.2205 C.2     1  UNL1        0.0343
      3 C          63.2150   84.6490    9.0610 C.2     1  UNL1        0.0232
      4 C          63.0464   84.6269   10.5513 C.2     1  UNL1        0.0975
      5 N          63.7541   83.8621   11.6302 N.2     1  UNL1       -0.2200
      6 C          63.1509   84.2525   12.9470 C.2     1  UNL1        0.1898
      7 N          62.0705   85.2586   12.6818 N.2     1  UNL1       -0.2236
      8 C          62.0059   85.4900   11.2011 C.2     1  UNL1        0.0863
      9 C          61.1340   86.3752   10.3607 C.3     1  UNL1        0.1112
     10 C          59.0005   86.9065    7.7792 C.3     1  UNL1        0.2520
     11 O          60.4308   87.2824    8.0300 O.2     1  UNL1       -0.4753
     12 S          63.5570   83.7287   14.2927 S.3     1  UNL1       -0.0757
     13 C          64.4623   84.5401   15.1714 C.3     1  UNL1        0.0651
     14 C          64.0500   85.9150   15.6069 C.3     1  UNL1        0.0112
     15 C          63.2187   86.0924   16.8428 C.3     1  UNL1        0.0009
     16 C          64.4689   87.1123   14.8065 C.3     1  UNL1        0.0009
@<TRIPOS>BOND
     1    10    11    1
     2    11     1    1
     3     1     2    2
     4     2     3    1
     5     3     4    2
     6     4     5    1
     7     5     6    2
     8     6    12    1
     9    12    13    1
    10    13    14    1
    11    14    15    1
    12    14    16    1
    13     6     7    1
    14     7     8    2
    15     8     9    1
    16     9     1    1
    17     8     4    1
@<TRIPOS>MOLECULE
*****
 16 17 0 0 0
SMALL
GASTEIGER

@<TRIPOS>ATOM
      1 C          60.3158   87.7922    8.6736 C.2     1  UNL1        0.1223
      2 C          60.9236   88.9659    9.3829 C.2     1  UNL1        0.0343
      3 C          61.8036   88.7467   10.5777 C.2     1  UNL1        0.0232
      4 C          62.0758   87.3538   11.0632 C.2     1  UNL1        0.0975
      5 N          62.8963   86.8313   12.2050 N.2     1  UNL1       -0.2200
      6 C          62.7956   85.3347   12.2014 C.2     1  UNL1        0.1898
      7 N          61.9129   84.9322   11.0574 N.2     1  UNL1       -0.2236
      8 C          61.4681   86.1802   10.3539 C.2     1  UNL1        0.0863
      9 C          60.5881   86.3994    9.1591 C.3     1  UNL1        0.1112
     10 C          59.3739   89.3628    6.8308 C.3     1  UNL1        0.2520
     11 O          59.4359   88.0114    7.4788 O.2     1  UNL1       -0.4753
     12 S          63.4609   84.4039   13.1716 S.3     1  UNL1       -0.0757
     13 C          62.6377   83.4297   13.9611 C.3     1  UNL1        0.0651
     14 C          62.3361   82.0729   13.3974 C.3     1  UNL1        0.0112
     15 C          62.9619   81.6420   12.1041 C.3     1  UNL1        0.0009
     16 C          61.4086   81.1469   14.1269 C.3     1  UNL1        0.0009
@<TRIPOS>BOND
     1    10    11    1
     2    11     1    1
     3     1     2    2
     4     2     3    1
     5     3     4    2
     6     4     5    1
     7     5     6    2
     8     6    12    1
     9    12    13    1
    10    13    14    1
    11    14    15    1
    12    14    16    1
    13     6     7    1
    14     7     8    2
    15     8     9    1
    16     9     1    1
    17     8     4    1
@<TRIPOS>MOLECULE
*****
 16 17 0 0 0
SMALL
GASTEIGER

@<TRIPOS>ATOM
      1 C          63.3220   82.4526   13.7587 C.2     1  UNL1        0.1223
      2 C          63.9798   83.4627   14.6515 C.2     1  UNL1        0.0343
      3 C          63.9476   84.9178   14.2890 C.2     1  UNL1        0.0232
      4 C          63.2575   85.3630   13.0338 C.2     1  UNL1        0.0975
      5 N          63.0641   86.7185   12.4214 N.2     1  UNL1       -0.2200
      6 C          62.2868   86.5462   11.1501 C.2     1  UNL1        0.1898
      7 N          61.9997   85.0842   10.9768 N.2     1  UNL1       -0.2236
      8 C          62.5997   84.3529   12.1411 C.2     1  UNL1        0.0863
      9 C          62.6320   82.8977   12.5035 C.3     1  UNL1        0.1112
     10 C          62.4441   80.0304   13.4238 C.3     1  UNL1        0.2520
     11 O          63.3543   80.9974   14.1212 O.2     1  UNL1       -0.4753
     12 S          61.8697   87.6435   10.2161 S.3     1  UNL1       -0.0757
     13 C          60.4394   87.7515    9.7772 C.3     1  UNL1        0.0651
     14 C          60.0611   87.4171    8.3648 C.3     1  UNL1        0.0112
     15 C          59.3113   88.4150    7.5329 C.3     1  UNL1        0.0009
     16 C          60.4324   86.0848    7.7843 C.3     1  UNL1        0.0009
@<TRIPOS>BOND
     1    10    11    1
     2    11     1    1
     3     1     2    2
     4     2     3    1
     5     3     4    2
     6     4     5    1
     7     5     6    2
     8     6    12    1
     9    12    13    1
    10    13    14    1
    11    14    15    1
    12    14    16    1
    13     6     7    1
    14     7     8    2
    15     8     9    1
    16     9     1    1
    17     8     4    1
@<TRIPOS>MOLECULE
*****
 16 17 0 0 0
SMALL
GASTEIGER

@<TRIPOS>ATOM
      1 C          61.9850   88.6101   10.2557 C.2     1  UNL1        0.1223
      2 C          61.4341   87.5650    9.3316 C.2     1  UNL1        0.0343
      3 C          61.5261   86.1139    9.7004 C.2     1  UNL1        0.0232
      4 C          62.1690   85.7081   10.9934 C.2     1  UNL1        0.0975
      5 N          62.4023   84.3656   11.6204 N.2     1  UNL1       -0.2200
      6 C          63.0975   84.5810   12.9321 C.2     1  UNL1        0.1898
      7 N          63.2938   86.0567   13.1157 N.2     1  UNL1       -0.2236
      8 C          62.7199   86.7533   11.9175 C.2     1  UNL1        0.0863
      9 C          62.6279   88.2043   11.5487 C.3     1  UNL1        0.1112
     10 C          62.9679   91.0143   10.3181 C.3     1  UNL1        0.2520
     11 O          61.8930   90.0612    9.8868 O.2     1  UNL1       -0.4753
     12 S          63.5218   83.5089   13.8916 S.3     1  UNL1       -0.0757
     13 C          62.4946   82.6111   14.5152 C.3     1  UNL1        0.0651
     14 C          62.0081   81.4006   13.7750 C.3     1  UNL1        0.0112
     15 C          62.8604   80.7816   12.7071 C.3     1  UNL1        0.0009
     16 C          60.6693   80.8089   14.1029 C.3     1  UNL1        0.0009
@<TRIPOS>BOND
     1    10    11    1
     2    11     1    1
     3     1     2    2
     4     2     3    1
     5     3     4    2
     6     4     5    1
     7     5     6    2
     8     6    12    1
     9    12    13    1
    10    13    14    1
    11    14    15    1
    12    14    16    1
    13     6     7    1
    14     7     8    2
    15     8     9    1
    16     9     1    1
    17     8     4    1
