@<TRIPOS>MOLECULE
*****
 43 48 0 0 0
SMALL
GASTEIGER

@<TRIPOS>ATOM
      1 C          59.8422   89.9898    6.4416 C.2     1  UNL1        0.0332
      2 C          58.3638   90.1997    6.3004 C.2     1  UNL1        0.0101
      3 C          57.8310   91.0638    5.1960 C.2     1  UNL1        0.0255
      4 C          56.3524   91.2737    5.0548 C.3     1  UNL1        0.0351
      5 C          58.7768   91.7178    4.2328 C.2     1  UNL1        0.2278
      6 N          58.5467   92.6162    3.0539 N.2     1  UNL1       -0.0345
      7 C          59.8830   92.9614    2.4665 C.2     1  UNL1        0.3649
      8 N          60.9390   92.2764    3.2824 N.2     1  UNL1       -0.0380
      9 C          60.2553   91.5078    4.3741 C.2     1  UNL1        0.2184
     10 C          60.7880   90.6438    5.4785 C.3     1  UNL1        0.1186
     11 C          60.1215   93.8379    1.2727 C.3     1  UNL1        0.2250
     12 C          59.1862   93.7806    0.1014 C.2     1  UNL1        0.0436
     13 C          59.4248   94.6571   -1.0923 C.2     1  UNL1        0.0288
     14 C          60.5986   95.5908   -1.1147 C.2     1  UNL1        0.0896
     15 N          61.5339   95.6480    0.0566 N.am    1  UNL1       -0.1770
     16 C          61.2953   94.7715    1.2503 C.2     1  UNL1        0.2627
     17 O          62.2306   94.8287    2.4216 O.2     1  UNL1       -0.2719
     18 N          58.0124   92.8470    0.1238 N.pl3   1  UNL1       -0.3335
     19 H          57.9293   92.1780    0.8412 H       1  UNL1        0.1466
     20 C          56.9654   92.9328   -0.9469 C.3     1  UNL1        0.1136
     21 C          56.7562   91.7814   -1.8852 C.3     1  UNL1        0.1486
     22 N          56.3902   92.0378   -3.3171 N.ar    1  UNL1       -0.2468
     23 C          56.3530   93.3772   -3.9913 C.ar    1  UNL1        0.1081
     24 C          55.9370   93.1670   -5.4171 C.ar    1  UNL1        0.0972
     25 CL         55.7702   94.2381   -6.4539 Cl      1  UNL1       -0.0789
     26 C          55.7172   91.6978   -5.6241 C.ar    1  UNL1        0.1330
     27 N          55.9973   90.9998   -4.3262 N.ar    1  UNL1       -0.1667
     28 C          61.4405   87.3978    9.7548 C.3     1  UNL1        0.0610
     29 C          61.6160   88.8862    9.8160 C.3     1  UNL1        0.0374
     30 C          61.0832   89.7502    8.7116 C.3     1  UNL1        0.0919
     31 N          60.3750   89.1258    7.5461 N.pl3   1  UNL1       -0.3103
     32 C          60.1995   87.6374    7.4849 C.3     1  UNL1        0.0919
     33 C          60.7323   86.7733    8.5892 C.3     1  UNL1        0.0374
     34 C          63.5715   83.9417   14.1724 C.2     1  UNL1        0.4051
     35 O          64.2116   84.5706   15.3742 O.2     1  UNL1       -0.2262
     36 N          63.0387   84.8057   13.0679 N.am    1  UNL1       -0.2432
     37 C          62.3986   84.1768   11.8660 C.3     1  UNL1        0.1141
     38 C          61.8658   85.0408   10.7616 C.3     1  UNL1        0.0940
     39 N          61.9732   86.5337   10.8592 N.3     1  UNL1       -0.2710
     40 C          62.6134   87.1627   12.0611 C.3     1  UNL1        0.0940
     41 C          63.1461   86.2986   13.1655 C.3     1  UNL1        0.1141
     42 C          62.1663   81.7677   14.3941 C.3     1  UNL1        0.2573
     43 O          63.4641   82.4487   14.0748 O.3     1  UNL1       -0.4304
@<TRIPOS>BOND
     1    42    43    1
     2    43    34    1
     3    34    35    2
     4    34    36   am
     5    36    37    1
     6    37    38    1
     7    38    39    1
     8    39    28    1
     9    28    29    1
    10    29    30    1
    11    30    31    1
    12    31     1    1
    13     1     2    2
    14     2     3    1
    15     3     4    1
    16     3     5    2
    17     5     6    1
    18     6     7    2
    19     7    11    1
    20    11    12    1
    21    12    18    1
    22    18    20    1
    23    20    21    1
    24    21    22    1
    25    22    23   ar
    26    23    24   ar
    27    24    25    1
    28    24    26   ar
    29    26    27   ar
    30    12    13    2
    31    13    14    1
    32    14    15    2
    33    15    16    1
    34    16    17    2
    35     7     8    1
    36     8     9    2
    37     9    10    1
    38    31    32    1
    39    32    33    1
    40    39    40    1
    41    40    41    1
    42    41    36    1
    43    33    28    1
    44    10     1    1
    45     9     5    1
    46    16    11    1
    47    27    22   ar
    48    18    19    1
@<TRIPOS>MOLECULE
*****
 43 48 0 0 0
SMALL
GASTEIGER

@<TRIPOS>ATOM
      1 C          59.9165   89.8119    6.4149 C.2     1  UNL1        0.0332
      2 C          58.4611   90.1468    6.2758 C.2     1  UNL1        0.0101
      3 C          58.0105   91.1074    5.2154 C.2     1  UNL1        0.0255
      4 C          56.5550   91.4423    5.0764 C.3     1  UNL1        0.0351
      5 C          59.0155   91.7331    4.2943 C.2     1  UNL1        0.2278
      6 N          58.8701   92.7077    3.1633 N.2     1  UNL1       -0.0345
      7 C          60.2358   92.9751    2.6035 C.2     1  UNL1        0.3649
      8 N          61.2252   92.1658    3.3885 N.2     1  UNL1       -0.0380
      9 C          60.4710   91.3982    4.4335 C.2     1  UNL1        0.2184
     10 C          60.9215   90.4376    5.4938 C.3     1  UNL1        0.1186
     11 C          60.5559   93.8909    1.4595 C.3     1  UNL1        0.2250
     12 C          59.5673   94.0746    0.3465 C.2     1  UNL1        0.0436
     13 C          59.8875   94.9905   -0.7975 C.2     1  UNL1        0.0288
     14 C          61.1963   95.7227   -0.8284 C.2     1  UNL1        0.0896
     15 N          62.1849   95.5391    0.2846 N.am    1  UNL1       -0.1770
     16 C          61.8647   94.6232    1.4286 C.2     1  UNL1        0.2627
     17 O          62.8533   94.4396    2.5416 O.2     1  UNL1       -0.2719
     18 N          58.2585   93.3424    0.3773 N.pl3   1  UNL1       -0.3335
     19 H          57.6597   93.4371    1.1530 H       1  UNL1        0.1466
     20 C          57.8621   92.4659   -0.7736 C.3     1  UNL1        0.1136
     21 C          57.1446   93.0544   -1.9521 C.3     1  UNL1        0.1486
     22 N          56.1727   94.1795   -1.7531 N.ar    1  UNL1       -0.2468
     23 C          54.7037   94.1389   -2.0533 C.ar    1  UNL1        0.1081
     24 C          54.1223   95.4771   -1.7047 C.ar    1  UNL1        0.0972
     25 CL         52.6837   95.8774   -1.8468 Cl      1  UNL1       -0.0789
     26 C          55.2319   96.3446   -1.1891 C.ar    1  UNL1        0.1330
     27 N          56.4993   95.5426   -1.2190 N.ar    1  UNL1       -0.1667
     28 C          61.2683   86.9299    9.5956 C.3     1  UNL1        0.0610
     29 C          61.4623   88.4047    9.7885 C.3     1  UNL1        0.0374
     30 C          61.0117   89.3654    8.7282 C.3     1  UNL1        0.0919
     31 N          60.3672   88.8512    7.4752 N.pl3   1  UNL1       -0.3103
     32 C          60.1731   87.3764    7.2824 C.3     1  UNL1        0.0919
     33 C          60.6237   86.4157    8.3426 C.3     1  UNL1        0.0374
     34 C          63.0706   83.0872   13.8366 C.2     1  UNL1        0.4051
     35 O          63.0464   83.4970   15.2793 O.2     1  UNL1       -0.2262
     36 N          62.6200   84.0479   12.7763 N.am    1  UNL1       -0.2432
     37 C          62.6441   83.6380   11.3337 C.3     1  UNL1        0.1141
     38 C          62.1936   84.5987   10.2734 C.3     1  UNL1        0.0940
     39 N          61.7189   85.9692   10.6559 N.3     1  UNL1       -0.2710
     40 C          61.6947   86.3790   12.0986 C.3     1  UNL1        0.0940
     41 C          62.1453   85.4184   13.1588 C.3     1  UNL1        0.1141
     42 C          62.6266   80.5390   13.5924 C.3     1  UNL1        0.2573
     43 O          63.5453   81.7167   13.4541 O.3     1  UNL1       -0.4304
@<TRIPOS>BOND
     1    42    43    1
     2    43    34    1
     3    34    35    2
     4    34    36   am
     5    36    37    1
     6    37    38    1
     7    38    39    1
     8    39    28    1
     9    28    29    1
    10    29    30    1
    11    30    31    1
    12    31     1    1
    13     1     2    2
    14     2     3    1
    15     3     4    1
    16     3     5    2
    17     5     6    1
    18     6     7    2
    19     7    11    1
    20    11    12    1
    21    12    18    1
    22    18    20    1
    23    20    21    1
    24    21    22    1
    25    22    23   ar
    26    23    24   ar
    27    24    25    1
    28    24    26   ar
    29    26    27   ar
    30    12    13    2
    31    13    14    1
    32    14    15    2
    33    15    16    1
    34    16    17    2
    35     7     8    1
    36     8     9    2
    37     9    10    1
    38    31    32    1
    39    32    33    1
    40    39    40    1
    41    40    41    1
    42    41    36    1
    43    33    28    1
    44    10     1    1
    45     9     5    1
    46    16    11    1
    47    27    22   ar
    48    18    19    1
@<TRIPOS>MOLECULE
*****
 43 48 0 0 0
SMALL
GASTEIGER

@<TRIPOS>ATOM
      1 C          59.7837   90.0740    6.3571 C.2     1  UNL1        0.0332
      2 C          58.3027   90.2724    6.2268 C.2     1  UNL1        0.0101
      3 C          57.7543   91.1224    5.1192 C.2     1  UNL1        0.0255
      4 C          56.2732   91.3208    4.9889 C.3     1  UNL1        0.0351
      5 C          58.6872   91.7740    4.1418 C.2     1  UNL1        0.2278
      6 N          58.4406   92.6599    2.9567 N.2     1  UNL1       -0.0345
      7 C          59.7694   93.0090    2.3546 C.2     1  UNL1        0.3649
      8 N          60.8371   92.3389    3.1676 N.2     1  UNL1       -0.0380
      9 C          60.1683   91.5757    4.2722 C.2     1  UNL1        0.2184
     10 C          60.7166   90.7256    5.3798 C.3     1  UNL1        0.1186
     11 C          59.9914   93.8760    1.1509 C.3     1  UNL1        0.2250
     12 C          61.2254   94.7233    1.0542 C.2     1  UNL1        0.0436
     13 C          61.4474   95.5902   -0.1497 C.2     1  UNL1        0.0288
     14 C          60.4355   95.6099   -1.2567 C.2     1  UNL1        0.0896
     15 N          59.2015   94.7626   -1.1600 N.am    1  UNL1       -0.1770
     16 C          58.9795   93.8956    0.0438 C.2     1  UNL1        0.2627
     17 O          57.7456   93.0483    0.1405 O.2     1  UNL1       -0.2719
     18 N          62.2374   94.7037    2.1612 N.pl3   1  UNL1       -0.3335
     19 H          61.9584   94.8913    3.0865 H       1  UNL1        0.1466
     20 C          63.6744   94.3982    1.8585 C.3     1  UNL1        0.1136
     21 C          64.0256   93.5262    0.6896 C.3     1  UNL1        0.1486
     22 N          64.2336   94.1358   -0.6651 N.ar    1  UNL1       -0.2468
     23 C          63.7485   93.5740   -1.9686 C.ar    1  UNL1        0.1081
     24 C          64.1783   94.5052   -3.0632 C.ar    1  UNL1        0.0972
     25 CL         63.9053   94.3299   -4.5277 Cl      1  UNL1       -0.0789
     26 C          64.9290   95.6424   -2.4363 C.ar    1  UNL1        0.1330
     27 N          64.9632   95.4141   -0.9541 N.ar    1  UNL1       -0.1667
     28 C          61.4286   87.5239    9.6800 C.3     1  UNL1        0.0610
     29 C          61.5780   89.0154    9.7351 C.3     1  UNL1        0.0374
     30 C          61.0296   89.8654    8.6274 C.3     1  UNL1        0.0919
     31 N          60.3320   89.2240    7.4648 N.pl3   1  UNL1       -0.3103
     32 C          60.1827   87.7325    7.4097 C.3     1  UNL1        0.0919
     33 C          60.7310   86.8824    8.5173 C.3     1  UNL1        0.0374
     34 C          63.6219   84.1237   14.1104 C.2     1  UNL1        0.4051
     35 O          64.3103   84.7658   15.2781 O.2     1  UNL1       -0.2262
     36 N          63.0735   84.9737   13.0027 N.am    1  UNL1       -0.2432
     37 C          62.3851   84.3316   11.8350 C.3     1  UNL1        0.1141
     38 C          61.8368   85.1816   10.7274 C.3     1  UNL1        0.0940
     39 N          61.9769   86.6738   10.7876 N.3     1  UNL1       -0.2710
     40 C          62.6654   87.3160   11.9553 C.3     1  UNL1        0.0940
     41 C          63.2137   86.4659   13.0629 C.3     1  UNL1        0.1141
     42 C          62.1966   81.9814   14.4696 C.3     1  UNL1        0.2573
     43 O          63.4817   82.6315   14.0502 O.3     1  UNL1       -0.4304
@<TRIPOS>BOND
     1    42    43    1
     2    43    34    1
     3    34    35    2
     4    34    36   am
     5    36    37    1
     6    37    38    1
     7    38    39    1
     8    39    28    1
     9    28    29    1
    10    29    30    1
    11    30    31    1
    12    31     1    1
    13     1     2    2
    14     2     3    1
    15     3     4    1
    16     3     5    2
    17     5     6    1
    18     6     7    2
    19     7    11    1
    20    11    12    1
    21    12    18    1
    22    18    20    1
    23    20    21    1
    24    21    22    1
    25    22    23   ar
    26    23    24   ar
    27    24    25    1
    28    24    26   ar
    29    26    27   ar
    30    12    13    2
    31    13    14    1
    32    14    15    2
    33    15    16    1
    34    16    17    2
    35     7     8    1
    36     8     9    2
    37     9    10    1
    38    31    32    1
    39    32    33    1
    40    39    40    1
    41    40    41    1
    42    41    36    1
    43    33    28    1
    44    10     1    1
    45     9     5    1
    46    16    11    1
    47    27    22   ar
    48    18    19    1
@<TRIPOS>MOLECULE
*****
 43 48 0 0 0
SMALL
GASTEIGER

@<TRIPOS>ATOM
      1 C          60.2171   89.9246    6.8729 C.2     1  UNL1        0.0332
      2 C          59.3378   88.7436    7.1591 C.2     1  UNL1        0.0101
      3 C          59.5479   87.9367    8.4061 C.2     1  UNL1        0.0255
      4 C          58.6684   86.7557    8.6923 C.3     1  UNL1        0.0351
      5 C          60.6373   88.3110    9.3668 C.2     1  UNL1        0.2278
      6 N          61.0791   87.7084   10.6675 N.2     1  UNL1       -0.0345
      7 C          62.2316   88.5171   11.1851 C.2     1  UNL1        0.3649
      8 N          62.5020   89.6194   10.2044 N.2     1  UNL1       -0.0380
      9 C          61.5167   89.4920    9.0806 C.2     1  UNL1        0.2184
     10 C          61.3065   90.2988    7.8337 C.3     1  UNL1        0.1186
     11 C          62.9819   88.2674   12.4598 C.3     1  UNL1        0.2250
     12 C          63.5425   89.4204   13.2383 C.2     1  UNL1        0.0436
     13 C          64.2928   89.1706   14.5130 C.2     1  UNL1        0.0288
     14 C          64.4825   87.7678   15.0090 C.2     1  UNL1        0.0896
     15 N          63.9220   86.6147   14.2305 N.am    1  UNL1       -0.1770
     16 C          63.1716   86.8646   12.9558 C.2     1  UNL1        0.2627
     17 O          62.6111   85.7115   12.1773 O.2     1  UNL1       -0.2719
     18 N          63.3528   90.8233   12.7424 N.pl3   1  UNL1       -0.3335
     19 H          62.5487   91.3310   12.9972 H       1  UNL1        0.1466
     20 C          64.3881   91.4526   11.8580 C.3     1  UNL1        0.1136
     21 C          65.2041   92.6058   12.3621 C.3     1  UNL1        0.1486
     22 N          65.8845   92.5169   13.6959 N.ar    1  UNL1       -0.2468
     23 C          67.3659   92.5002   13.9306 C.ar    1  UNL1        0.1081
     24 C          67.5999   92.4020   15.4090 C.ar    1  UNL1        0.0972
     25 CL         68.9361   92.3559   16.0891 Cl      1  UNL1       -0.0789
     26 C          66.2632   92.3580   16.0880 C.ar    1  UNL1        0.1330
     27 N          65.2029   92.4290   15.0292 N.ar    1  UNL1       -0.1667
     28 C          59.5870   92.3451    3.1320 C.3     1  UNL1        0.0610
     29 C          58.4182   91.9954    4.0048 C.3     1  UNL1        0.0374
     30 C          58.6283   91.1885    5.2518 C.3     1  UNL1        0.0919
     31 N          60.0070   90.7314    5.6259 N.pl3   1  UNL1       -0.3103
     32 C          61.1758   91.0812    4.7532 C.3     1  UNL1        0.0919
     33 C          60.9658   91.8880    3.5063 C.3     1  UNL1        0.0374
     34 C          58.7470   95.5726   -1.8558 C.2     1  UNL1        0.4051
     35 O          59.5000   96.8543   -2.0554 O.2     1  UNL1       -0.2262
     36 N          58.9570   94.7656   -0.6088 N.am    1  UNL1       -0.2432
     37 C          58.2040   93.4839   -0.4092 C.3     1  UNL1        0.1141
     38 C          58.4140   92.6770    0.8378 C.3     1  UNL1        0.0940
     39 N          59.3770   93.1520    1.8851 N.3     1  UNL1       -0.2710
     40 C          60.1300   94.4338    1.6855 C.3     1  UNL1        0.0940
     41 C          59.9200   95.2406    0.4385 C.3     1  UNL1        0.1141
     42 C          58.0774   93.8489   -3.6807 C.3     1  UNL1        0.2573
     43 O          57.7840   95.0976   -2.9031 O.3     1  UNL1       -0.4304
@<TRIPOS>BOND
     1    42    43    1
     2    43    34    1
     3    34    35    2
     4    34    36   am
     5    36    37    1
     6    37    38    1
     7    38    39    1
     8    39    28    1
     9    28    29    1
    10    29    30    1
    11    30    31    1
    12    31     1    1
    13     1     2    2
    14     2     3    1
    15     3     4    1
    16     3     5    2
    17     5     6    1
    18     6     7    2
    19     7    11    1
    20    11    12    1
    21    12    18    1
    22    18    20    1
    23    20    21    1
    24    21    22    1
    25    22    23   ar
    26    23    24   ar
    27    24    25    1
    28    24    26   ar
    29    26    27   ar
    30    12    13    2
    31    13    14    1
    32    14    15    2
    33    15    16    1
    34    16    17    2
    35     7     8    1
    36     8     9    2
    37     9    10    1
    38    31    32    1
    39    32    33    1
    40    39    40    1
    41    40    41    1
    42    41    36    1
    43    33    28    1
    44    10     1    1
    45     9     5    1
    46    16    11    1
    47    27    22   ar
    48    18    19    1
@<TRIPOS>MOLECULE
*****
 43 48 0 0 0
SMALL
GASTEIGER

@<TRIPOS>ATOM
      1 C          60.2201   89.9238    6.8107 C.2     1  UNL1        0.0332
      2 C          59.3438   88.7390    7.0901 C.2     1  UNL1        0.0101
      3 C          59.5519   87.9292    8.3355 C.2     1  UNL1        0.0255
      4 C          58.6755   86.7443    8.6149 C.3     1  UNL1        0.0351
      5 C          60.6365   88.3043    9.3015 C.2     1  UNL1        0.2278
      6 N          61.0754   87.6995   10.6020 N.2     1  UNL1       -0.0345
      7 C          62.2231   88.5106   11.1264 C.2     1  UNL1        0.3649
      8 N          62.4934   89.6167   10.1499 N.2     1  UNL1       -0.0380
      9 C          61.5128   89.4892    9.0220 C.2     1  UNL1        0.2184
     10 C          61.3047   90.2989    7.7766 C.3     1  UNL1        0.1186
     11 C          62.9694   88.2597   12.4031 C.3     1  UNL1        0.2250
     12 C          63.5245   89.4123   13.1863 C.2     1  UNL1        0.0436
     13 C          64.2708   89.1613   14.4631 C.2     1  UNL1        0.0288
     14 C          64.4621   87.7578   14.9566 C.2     1  UNL1        0.0896
     15 N          63.9070   86.6052   14.1734 N.am    1  UNL1       -0.1770
     16 C          63.1607   86.8562   12.8967 C.2     1  UNL1        0.2627
     17 O          62.6056   85.7036   12.1135 O.2     1  UNL1       -0.2719
     18 N          63.3333   90.8158   12.6928 N.pl3   1  UNL1       -0.3335
     19 H          62.4303   91.2064   12.6574 H       1  UNL1        0.1466
     20 C          64.5179   91.6243   12.2533 C.3     1  UNL1        0.1136
     21 C          64.5664   92.1898   10.8649 C.3     1  UNL1        0.1486
     22 N          65.7043   93.0776   10.4560 N.ar    1  UNL1       -0.2468
     23 C          65.6661   94.5743   10.3655 C.ar    1  UNL1        0.1081
     24 C          67.0184   95.0462    9.9194 C.ar    1  UNL1        0.0972
     25 CL         67.4253   96.4728    9.6974 Cl      1  UNL1       -0.0789
     26 C          67.8921   93.8412    9.7343 C.ar    1  UNL1        0.1330
     27 N          67.0799   92.6244   10.0659 N.ar    1  UNL1       -0.1667
     28 C          59.5959   92.3531    3.0745 C.3     1  UNL1        0.0610
     29 C          58.4230   91.9833    3.9333 C.3     1  UNL1        0.0374
     30 C          58.6312   91.1735    5.1787 C.3     1  UNL1        0.0919
     31 N          60.0120   90.7336    5.5652 N.pl3   1  UNL1       -0.3103
     32 C          61.1849   91.1033    4.7064 C.3     1  UNL1        0.0919
     33 C          60.9769   91.9131    3.4611 C.3     1  UNL1        0.0374
     34 C          58.7637   95.5921   -1.9071 C.2     1  UNL1        0.4051
     35 O          57.7756   95.1384   -2.9403 O.2     1  UNL1       -0.2262
     36 N          58.9718   94.7824   -0.6617 N.am    1  UNL1       -0.2432
     37 C          59.9600   95.2360    0.3715 C.3     1  UNL1        0.1141
     38 C          60.1681   94.4263    1.6170 C.3     1  UNL1        0.0940
     39 N          59.3879   93.1628    1.8291 N.3     1  UNL1       -0.2710
     40 C          58.3997   92.7092    0.7958 C.3     1  UNL1        0.0940
     41 C          58.1916   93.5189   -0.4495 C.3     1  UNL1        0.1141
     42 C          60.8301   96.8222   -2.8904 C.3     1  UNL1        0.2573
     43 O          59.5439   96.8555   -2.1193 O.3     1  UNL1       -0.4304
@<TRIPOS>BOND
     1    42    43    1
     2    43    34    1
     3    34    35    2
     4    34    36   am
     5    36    37    1
     6    37    38    1
     7    38    39    1
     8    39    28    1
     9    28    29    1
    10    29    30    1
    11    30    31    1
    12    31     1    1
    13     1     2    2
    14     2     3    1
    15     3     4    1
    16     3     5    2
    17     5     6    1
    18     6     7    2
    19     7    11    1
    20    11    12    1
    21    12    18    1
    22    18    20    1
    23    20    21    1
    24    21    22    1
    25    22    23   ar
    26    23    24   ar
    27    24    25    1
    28    24    26   ar
    29    26    27   ar
    30    12    13    2
    31    13    14    1
    32    14    15    2
    33    15    16    1
    34    16    17    2
    35     7     8    1
    36     8     9    2
    37     9    10    1
    38    31    32    1
    39    32    33    1
    40    39    40    1
    41    40    41    1
    42    41    36    1
    43    33    28    1
    44    10     1    1
    45     9     5    1
    46    16    11    1
    47    27    22   ar
    48    18    19    1
@<TRIPOS>MOLECULE
*****
 43 48 0 0 0
SMALL
GASTEIGER

@<TRIPOS>ATOM
      1 C          60.2870   89.9909    6.8901 C.2     1  UNL1        0.0332
      2 C          59.4543   88.7756    7.1718 C.2     1  UNL1        0.0101
      3 C          59.6883   87.9791    8.4212 C.2     1  UNL1        0.0255
      4 C          58.8555   86.7637    8.7029 C.3     1  UNL1        0.0351
      5 C          60.7552   88.3980    9.3888 C.2     1  UNL1        0.2278
      6 N          61.2122   87.8152   10.6932 N.2     1  UNL1       -0.0345
      7 C          62.3274   88.6704   11.2176 C.2     1  UNL1        0.3649
      8 N          62.5596   89.7817   10.2373 N.2     1  UNL1       -0.0380
      9 C          61.5879   89.6134    9.1071 C.2     1  UNL1        0.2184
     10 C          61.3538   90.4098    7.8577 C.3     1  UNL1        0.1186
     11 C          63.0785   88.4525   12.4976 C.3     1  UNL1        0.2250
     12 C          63.2785   87.0616   13.0223 C.2     1  UNL1        0.0436
     13 C          64.0296   86.8438   14.3024 C.2     1  UNL1        0.0288
     14 C          64.5808   88.0167   15.0576 C.2     1  UNL1        0.0896
     15 N          64.3807   89.4076   14.5328 N.am    1  UNL1       -0.1770
     16 C          63.6296   89.6254   13.2528 C.2     1  UNL1        0.2627
     17 O          63.4296   91.0163   12.7280 O.2     1  UNL1       -0.2719
     18 N          62.7274   85.8885   12.2672 N.pl3   1  UNL1       -0.3335
     19 H          61.8394   85.9473   11.8462 H       1  UNL1        0.1466
     20 C          63.5293   84.6260   12.1535 C.3     1  UNL1        0.1136
     21 C          63.6885   83.7288   13.3449 C.3     1  UNL1        0.1486
     22 N          62.9398   82.4307   13.4117 N.ar    1  UNL1       -0.2468
     23 C          61.6125   82.2117   14.0752 C.ar    1  UNL1        0.1081
     24 C          61.2393   80.7694   13.9003 C.ar    1  UNL1        0.0972
     25 CL         59.9889   80.1144   14.4079 Cl      1  UNL1       -0.0789
     26 C          62.3359   80.0971   13.1288 C.ar    1  UNL1        0.1330
     27 N          63.3869   81.1238   12.8268 N.ar    1  UNL1       -0.1667
     28 C          59.5849   92.3802    3.1420 C.3     1  UNL1        0.0610
     29 C          58.4264   91.9928    4.0124 C.3     1  UNL1        0.0374
     30 C          58.6604   91.1963    5.2618 C.3     1  UNL1        0.0919
     31 N          60.0529   90.7873    5.6407 N.pl3   1  UNL1       -0.3103
     32 C          61.2114   91.1748    4.7703 C.3     1  UNL1        0.0919
     33 C          60.9775   91.9712    3.5209 C.3     1  UNL1        0.0374
     34 C          58.6490   95.5661   -1.8555 C.2     1  UNL1        0.4051
     35 O          59.3839   96.8557   -2.0714 O.2     1  UNL1       -0.2262
     36 N          58.8829   94.7696   -0.6061 N.am    1  UNL1       -0.2432
     37 C          58.1481   93.4800   -0.3902 C.3     1  UNL1        0.1141
     38 C          58.3820   92.6834    0.8592 C.3     1  UNL1        0.0940
     39 N          59.3509   93.1767    1.8926 N.3     1  UNL1       -0.2710
     40 C          60.0858   94.4664    1.6767 C.3     1  UNL1        0.0940
     41 C          59.8518   95.2628    0.4273 C.3     1  UNL1        0.1141
     42 C          56.2617   95.5608   -2.8806 C.3     1  UNL1        0.2573
     43 O          57.6801   95.0729   -2.8889 O.3     1  UNL1       -0.4304
@<TRIPOS>BOND
     1    42    43    1
     2    43    34    1
     3    34    35    2
     4    34    36   am
     5    36    37    1
     6    37    38    1
     7    38    39    1
     8    39    28    1
     9    28    29    1
    10    29    30    1
    11    30    31    1
    12    31     1    1
    13     1     2    2
    14     2     3    1
    15     3     4    1
    16     3     5    2
    17     5     6    1
    18     6     7    2
    19     7    11    1
    20    11    12    1
    21    12    18    1
    22    18    20    1
    23    20    21    1
    24    21    22    1
    25    22    23   ar
    26    23    24   ar
    27    24    25    1
    28    24    26   ar
    29    26    27   ar
    30    12    13    2
    31    13    14    1
    32    14    15    2
    33    15    16    1
    34    16    17    2
    35     7     8    1
    36     8     9    2
    37     9    10    1
    38    31    32    1
    39    32    33    1
    40    39    40    1
    41    40    41    1
    42    41    36    1
    43    33    28    1
    44    10     1    1
    45     9     5    1
    46    16    11    1
    47    27    22   ar
    48    18    19    1
@<TRIPOS>MOLECULE
*****
 43 48 0 0 0
SMALL
GASTEIGER

@<TRIPOS>ATOM
      1 C          59.6086   90.1577    6.2844 C.2     1  UNL1        0.0332
      2 C          58.1230   90.3520    6.2136 C.2     1  UNL1        0.0101
      3 C          57.5233   91.1491    5.0932 C.2     1  UNL1        0.0255
      4 C          56.0376   91.3434    5.0224 C.3     1  UNL1        0.0351
      5 C          58.4095   91.7518    4.0437 C.2     1  UNL1        0.2278
      6 N          58.1077   92.5805    2.8304 N.2     1  UNL1       -0.0345
      7 C          59.4069   92.8984    2.1514 C.2     1  UNL1        0.3649
      8 N          60.5116   92.2661    2.9450 N.2     1  UNL1       -0.0380
      9 C          59.8952   91.5575    4.1146 C.2     1  UNL1        0.2184
     10 C          60.4947   90.7604    5.2349 C.3     1  UNL1        0.1186
     11 C          59.5724   93.7066    0.8986 C.3     1  UNL1        0.2250
     12 C          59.8240   95.1827    0.9861 C.2     1  UNL1        0.0436
     13 C          59.9895   95.9908   -0.2667 C.2     1  UNL1        0.0288
     14 C          59.9033   95.3229   -1.6070 C.2     1  UNL1        0.0896
     15 N          59.6517   93.8468   -1.6946 N.am    1  UNL1       -0.1770
     16 C          59.4862   93.0386   -0.4417 C.2     1  UNL1        0.2627
     17 O          59.2346   91.5625   -0.5292 O.2     1  UNL1       -0.2719
     18 N          59.9102   95.8507    2.3263 N.pl3   1  UNL1       -0.3335
     19 H          59.0874   96.1091    2.8014 H       1  UNL1        0.1466
     20 C          61.2498   96.1252    2.9429 C.3     1  UNL1        0.1136
     21 C          62.3002   96.8557    2.1600 C.3     1  UNL1        0.1486
     22 N          63.4661   96.1055    1.5875 N.ar    1  UNL1       -0.2468
     23 C          63.6017   94.6138    1.5084 C.ar    1  UNL1        0.1081
     24 C          64.9206   94.3017    0.8655 C.ar    1  UNL1        0.0972
     25 CL         65.4645   92.9313    0.5894 Cl      1  UNL1       -0.0789
     26 C          65.6001   95.6005    0.5474 C.ar    1  UNL1        0.1330
     27 N          64.7012   96.7154    0.9936 N.ar    1  UNL1       -0.1667
     28 C          61.4074   87.7666    9.6455 C.3     1  UNL1        0.0610
     29 C          60.6247   87.0754    8.5687 C.3     1  UNL1        0.0374
     30 C          60.0250   87.8725    7.4483 C.3     1  UNL1        0.0919
     31 N          60.2082   89.3606    7.4048 N.pl3   1  UNL1       -0.3103
     32 C          60.9910   90.0517    8.4816 C.3     1  UNL1        0.0919
     33 C          61.5906   89.2547    9.6020 C.3     1  UNL1        0.0374
     34 C          63.8059   84.5784   14.1270 C.2     1  UNL1        0.4051
     35 O          63.7112   83.0816   14.1169 O.2     1  UNL1       -0.2262
     36 N          63.2063   85.3755   13.0066 N.am    1  UNL1       -0.2432
     37 C          63.3011   86.8724   13.0167 C.3     1  UNL1        0.1141
     38 C          62.7014   87.6695   11.8963 C.3     1  UNL1        0.0940
     39 N          62.0071   86.9696   10.7659 N.3     1  UNL1       -0.2710
     40 C          61.9123   85.4726   10.7558 C.3     1  UNL1        0.0940
     41 C          62.5119   84.6756   11.8762 C.3     1  UNL1        0.1141
     42 C          63.7244   86.1809   16.1704 C.3     1  UNL1        0.2573
     43 O          64.5003   85.2784   15.2574 O.3     1  UNL1       -0.4304
@<TRIPOS>BOND
     1    42    43    1
     2    43    34    1
     3    34    35    2
     4    34    36   am
     5    36    37    1
     6    37    38    1
     7    38    39    1
     8    39    28    1
     9    28    29    1
    10    29    30    1
    11    30    31    1
    12    31     1    1
    13     1     2    2
    14     2     3    1
    15     3     4    1
    16     3     5    2
    17     5     6    1
    18     6     7    2
    19     7    11    1
    20    11    12    1
    21    12    18    1
    22    18    20    1
    23    20    21    1
    24    21    22    1
    25    22    23   ar
    26    23    24   ar
    27    24    25    1
    28    24    26   ar
    29    26    27   ar
    30    12    13    2
    31    13    14    1
    32    14    15    2
    33    15    16    1
    34    16    17    2
    35     7     8    1
    36     8     9    2
    37     9    10    1
    38    31    32    1
    39    32    33    1
    40    39    40    1
    41    40    41    1
    42    41    36    1
    43    33    28    1
    44    10     1    1
    45     9     5    1
    46    16    11    1
    47    27    22   ar
    48    18    19    1
