@<TRIPOS>MOLECULE
*****
 34 37 0 0 0
SMALL
GASTEIGER

@<TRIPOS>ATOM
      1 C          60.5171   88.0605    9.4094 C.ar    1  UNL1        0.2229
      2 N          59.4740   87.6873    8.3980 N.ar    1  UNL1       -0.2110
      3 C          59.6804   86.4939    7.5131 C.ar    1  UNL1        0.1160
      4 C          60.9299   85.6736    7.6394 C.ar    1  UNL1        0.1085
      5 CL         61.1362   84.4801    6.7544 Cl      1  UNL1       -0.0777
      6 C          61.9730   86.0467    8.6507 C.ar    1  UNL1        0.1472
      7 N          61.7666   87.2402    9.5357 N.ar    1  UNL1       -0.1976
      8 N          60.3108   89.2539   10.2943 N.pl3   1  UNL1       -0.2679
      9 H          59.4116   89.6418   10.3958 H       1  UNL1        0.1565
     10 C          63.8014   91.0610   12.4852 C.ar    1  UNL1        0.0675
     11 C          63.6087   91.3376   11.0236 C.ar    1  UNL1        0.0190
     12 C          62.4451   90.7352   10.2933 C.ar    1  UNL1        0.0358
     13 C          61.4743   89.8562   11.0246 C.ar    1  UNL1        0.1344
     14 N          61.6670   89.5797   12.4862 N.ar    1  UNL1       -0.2277
     15 C          62.8305   90.1821   13.2165 C.ar    1  UNL1        0.1147
     16 C          68.4555   93.4705   15.4063 C.3     1  UNL1        0.0897
     17 N          67.2920   92.8681   14.6760 N.3     1  UNL1       -0.2686
     18 C          66.5901   91.6696   15.2424 C.3     1  UNL1        0.0938
     19 C          65.4265   91.0673   14.5121 C.3     1  UNL1        0.1082
     20 N          64.9649   91.6634   13.2154 N.pl3   1  UNL1       -0.3034
     21 C          65.6668   92.8619   12.6490 C.3     1  UNL1        0.1082
     22 C          66.8304   93.4643   13.3793 C.3     1  UNL1        0.0938
     23 N          63.2224   85.2264    8.7770 N.pl3   1  UNL1       -0.2971
     24 H          63.9241   85.2892    8.0893 H       1  UNL1        0.1536
     25 C          63.4028   84.3106    9.9512 C.ar    1  UNL1        0.0493
     26 C          64.0634   82.9765    9.7673 C.ar    1  UNL1        0.0146
     27 C          64.2438   82.0606   10.9414 C.ar    1  UNL1        0.0012
     28 C          63.7636   82.4789   12.2995 C.ar    1  UNL1        0.0039
     29 C          63.1031   83.8130   12.4835 C.ar    1  UNL1        0.0726
     30 C          62.9227   84.7288   11.3093 C.ar    1  UNL1        0.0185
     31 C          62.6229   84.2312   13.8417 C.3     1  UNL1        0.4186
     32 F          62.1428   84.6494   15.1998 F       1  UNL1       -0.1659
     33 F          63.2866   85.5648   13.6657 F       1  UNL1       -0.1659
     34 F          61.9593   82.8976   14.0176 F       1  UNL1       -0.1659
@<TRIPOS>BOND
     1    16    17    1
     2    17    18    1
     3    18    19    1
     4    19    20    1
     5    20    10    1
     6    10    11   ar
     7    11    12   ar
     8    12    13   ar
     9    13     8    1
    10     8     1    1
    11     1     2   ar
    12     2     3   ar
    13     3     4   ar
    14     4     5    1
    15     4     6   ar
    16     6    23    1
    17    23    25    1
    18    25    26   ar
    19    26    27   ar
    20    27    28   ar
    21    28    29   ar
    22    29    31    1
    23    31    32    1
    24    31    33    1
    25    31    34    1
    26    29    30   ar
    27     6     7   ar
    28    13    14   ar
    29    14    15   ar
    30    20    21    1
    31    21    22    1
    32    22    17    1
    33    15    10   ar
    34     7     1   ar
    35    30    25   ar
    36     8     9    1
    37    23    24    1
@<TRIPOS>MOLECULE
*****
 34 37 0 0 0
SMALL
GASTEIGER

@<TRIPOS>ATOM
      1 C          60.9616   88.3946   10.8628 C.ar    1  UNL1        0.2229
      2 N          60.2194   88.5925    9.5743 N.ar    1  UNL1       -0.2110
      3 C          60.3189   87.5651    8.4860 C.ar    1  UNL1        0.1160
      4 C          61.1606   86.3398    8.6860 C.ar    1  UNL1        0.1085
      5 CL         61.2601   85.3123    7.5976 Cl      1  UNL1       -0.0777
      6 C          61.9028   86.1418    9.9744 C.ar    1  UNL1        0.1472
      7 N          61.8033   87.1692   11.0628 N.ar    1  UNL1       -0.1976
      8 N          60.8621   89.4220   11.9511 N.pl3   1  UNL1       -0.2679
      9 H          59.9790   89.7018   12.2847 H       1  UNL1        0.1565
     10 C          64.5995   91.2255   13.6915 C.ar    1  UNL1        0.0675
     11 C          64.2831   91.4131   12.2373 C.ar    1  UNL1        0.0190
     12 C          63.0373   90.8119   11.6572 C.ar    1  UNL1        0.0358
     13 C          62.1079   90.0232   12.5312 C.ar    1  UNL1        0.1344
     14 N          62.4243   89.8356   13.9854 N.ar    1  UNL1       -0.2277
     15 C          63.6701   90.4368   14.5655 C.ar    1  UNL1        0.1147
     16 C          69.5828   93.6302   16.0119 C.3     1  UNL1        0.0897
     17 N          68.3370   93.0290   15.4318 N.3     1  UNL1       -0.2686
     18 C          67.0748   92.9921   16.2414 C.3     1  UNL1        0.0938
     19 C          65.8290   92.3909   15.6613 C.3     1  UNL1        0.1082
     20 N          65.8453   91.8267   14.2716 N.pl3   1  UNL1       -0.3034
     21 C          67.1075   91.8636   13.4620 C.3     1  UNL1        0.1082
     22 C          68.3533   92.4648   14.0421 C.3     1  UNL1        0.0938
     23 N          62.7445   84.9164   10.1745 N.pl3   1  UNL1       -0.2971
     24 H          63.2331   84.5254    9.4145 H       1  UNL1        0.1536
     25 C          62.8417   84.2868   11.5325 C.ar    1  UNL1        0.0493
     26 C          63.2947   85.1028   12.7068 C.ar    1  UNL1        0.0146
     27 C          63.3919   84.4733   14.0648 C.ar    1  UNL1        0.0012
     28 C          63.0361   83.0277   14.2485 C.ar    1  UNL1        0.0039
     29 C          62.5831   82.2117   13.0742 C.ar    1  UNL1        0.0726
     30 C          62.4859   82.8413   11.7162 C.ar    1  UNL1        0.0185
     31 C          62.2273   80.7661   13.2579 C.3     1  UNL1        0.4186
     32 F          61.8716   79.3206   13.4416 F       1  UNL1       -0.1659
     33 F          61.4644   81.1120   14.5022 F       1  UNL1       -0.1659
     34 F          62.9902   80.4202   12.0136 F       1  UNL1       -0.1659
@<TRIPOS>BOND
     1    16    17    1
     2    17    18    1
     3    18    19    1
     4    19    20    1
     5    20    10    1
     6    10    11   ar
     7    11    12   ar
     8    12    13   ar
     9    13     8    1
    10     8     1    1
    11     1     2   ar
    12     2     3   ar
    13     3     4   ar
    14     4     5    1
    15     4     6   ar
    16     6    23    1
    17    23    25    1
    18    25    26   ar
    19    26    27   ar
    20    27    28   ar
    21    28    29   ar
    22    29    31    1
    23    31    32    1
    24    31    33    1
    25    31    34    1
    26    29    30   ar
    27     6     7   ar
    28    13    14   ar
    29    14    15   ar
    30    20    21    1
    31    21    22    1
    32    22    17    1
    33    15    10   ar
    34     7     1   ar
    35    30    25   ar
    36     8     9    1
    37    23    24    1
@<TRIPOS>MOLECULE
*****
 34 37 0 0 0
SMALL
GASTEIGER

@<TRIPOS>ATOM
      1 C          64.1280   87.2110   14.5711 C.ar    1  UNL1        0.2229
      2 N          65.3065   86.4364   15.0821 N.ar    1  UNL1       -0.2110
      3 C          65.5145   85.0152   14.6498 C.ar    1  UNL1        0.1160
      4 C          64.5439   84.3685   13.7066 C.ar    1  UNL1        0.1085
      5 CL         64.7518   82.9472   13.2743 Cl      1  UNL1       -0.0777
      6 C          63.3653   85.1430   13.1956 C.ar    1  UNL1        0.1472
      7 N          63.1574   86.5643   13.6278 N.ar    1  UNL1       -0.1976
      8 N          63.9201   88.6322   15.0033 N.pl3   1  UNL1       -0.2679
      9 H          63.4521   88.8265   15.8474 H       1  UNL1        0.1565
     10 C          65.4354   92.0076   12.4420 C.ar    1  UNL1        0.0675
     11 C          64.2066   91.2501   12.0344 C.ar    1  UNL1        0.0190
     12 C          63.7015   90.1249   12.8882 C.ar    1  UNL1        0.0358
     13 C          64.4252   89.7573   14.1495 C.ar    1  UNL1        0.1344
     14 N          65.6540   90.5149   14.5571 N.ar    1  UNL1       -0.2277
     15 C          66.1591   91.6400   13.7034 C.ar    1  UNL1        0.1147
     16 C          67.4558   96.5081    9.0269 C.3     1  UNL1        0.0897
     17 N          66.9507   95.3830    9.8807 N.3     1  UNL1       -0.2686
     18 C          66.9560   93.9794    9.3517 C.3     1  UNL1        0.0938
     19 C          66.4508   92.8543   10.2055 C.3     1  UNL1        0.1082
     20 N          65.9405   93.1327   11.5882 N.pl3   1  UNL1       -0.3034
     21 C          65.9353   94.5363   12.1171 C.3     1  UNL1        0.1082
     22 C          66.4404   95.6615   11.2634 C.3     1  UNL1        0.0938
     23 N          62.3947   84.4963   12.2523 N.pl3   1  UNL1       -0.2971
     24 H          61.7954   83.7847   12.5741 H       1  UNL1        0.1536
     25 C          62.3373   84.9339   10.8187 C.ar    1  UNL1        0.0493
     26 C          63.3013   84.3633    9.8212 C.ar    1  UNL1        0.0146
     27 C          63.2440   84.8008    8.3876 C.ar    1  UNL1        0.0012
     28 C          62.2226   85.8091    7.9515 C.ar    1  UNL1        0.0039
     29 C          61.2586   86.3797    8.9490 C.ar    1  UNL1        0.0726
     30 C          61.3160   85.9422   10.3826 C.ar    1  UNL1        0.0185
     31 C          60.2372   87.3880    8.5129 C.3     1  UNL1        0.4186
     32 F          59.2159   88.3963    8.0768 F       1  UNL1       -0.1659
     33 F          59.3673   86.2821    7.9931 F       1  UNL1       -0.1659
     34 F          61.1070   88.4940    9.0327 F       1  UNL1       -0.1659
@<TRIPOS>BOND
     1    16    17    1
     2    17    18    1
     3    18    19    1
     4    19    20    1
     5    20    10    1
     6    10    11   ar
     7    11    12   ar
     8    12    13   ar
     9    13     8    1
    10     8     1    1
    11     1     2   ar
    12     2     3   ar
    13     3     4   ar
    14     4     5    1
    15     4     6   ar
    16     6    23    1
    17    23    25    1
    18    25    26   ar
    19    26    27   ar
    20    27    28   ar
    21    28    29   ar
    22    29    31    1
    23    31    32    1
    24    31    33    1
    25    31    34    1
    26    29    30   ar
    27     6     7   ar
    28    13    14   ar
    29    14    15   ar
    30    20    21    1
    31    21    22    1
    32    22    17    1
    33    15    10   ar
    34     7     1   ar
    35    30    25   ar
    36     8     9    1
    37    23    24    1
@<TRIPOS>MOLECULE
*****
 34 37 0 0 0
SMALL
GASTEIGER

@<TRIPOS>ATOM
      1 C          63.2366   88.4676   16.3404 C.ar    1  UNL1        0.2229
      2 N          62.2862   87.7529   17.2549 N.ar    1  UNL1       -0.2110
      3 C          62.1726   86.2583   17.1990 C.ar    1  UNL1        0.1160
      4 C          63.0093   85.4783   16.2287 C.ar    1  UNL1        0.1085
      5 CL         62.8956   83.9836   16.1729 Cl      1  UNL1       -0.0777
      6 C          63.9596   86.1928   15.3143 C.ar    1  UNL1        0.1472
      7 N          64.0733   87.6875   15.3702 N.ar    1  UNL1       -0.1976
      8 N          63.3502   89.9622   16.3963 N.pl3   1  UNL1       -0.2679
      9 H          62.9961   90.4541   17.1721 H       1  UNL1        0.1565
     10 C          65.3099   92.1976   13.0180 C.ar    1  UNL1        0.0675
     11 C          64.1406   91.2989   12.7441 C.ar    1  UNL1        0.0190
     12 C          63.4874   90.5537   13.8702 C.ar    1  UNL1        0.0358
     13 C          64.0035   90.7073   15.2702 C.ar    1  UNL1        0.1344
     14 N          65.1727   91.6060   15.5441 N.ar    1  UNL1       -0.2277
     15 C          65.8259   92.3512   14.4180 C.ar    1  UNL1        0.1147
     16 C          67.9227   95.1781    8.5137 C.3     1  UNL1        0.0897
     17 N          67.2695   94.4330    9.6398 N.3     1  UNL1       -0.2686
     18 C          67.3947   92.9407    9.7239 C.3     1  UNL1        0.0938
     19 C          66.7415   92.1955   10.8500 C.3     1  UNL1        0.1082
     20 N          65.9631   92.9427   11.8919 N.pl3   1  UNL1       -0.3034
     21 C          65.8378   94.4351   11.8078 C.3     1  UNL1        0.1082
     22 C          66.4910   95.1802   10.6817 C.3     1  UNL1        0.0938
     23 N          64.7964   85.4128   14.3441 N.pl3   1  UNL1       -0.2971
     24 H          65.7570   85.2828   14.5159 H       1  UNL1        0.1536
     25 C          64.1694   84.8308   13.1118 C.ar    1  UNL1        0.0493
     26 C          64.5528   83.4549   12.6536 C.ar    1  UNL1        0.0146
     27 C          63.9259   82.8729   11.4214 C.ar    1  UNL1        0.0012
     28 C          62.9156   83.6668   10.6475 C.ar    1  UNL1        0.0039
     29 C          62.5322   85.0427   11.1058 C.ar    1  UNL1        0.0726
     30 C          63.1591   85.6247   12.3379 C.ar    1  UNL1        0.0185
     31 C          61.5219   85.8366   10.3318 C.3     1  UNL1        0.4186
     32 F          60.5116   86.6304    9.5578 F       1  UNL1       -0.1659
     33 F          60.8810   86.2730   11.6158 F       1  UNL1       -0.1659
     34 F          62.1627   85.4001    9.0477 F       1  UNL1       -0.1659
@<TRIPOS>BOND
     1    16    17    1
     2    17    18    1
     3    18    19    1
     4    19    20    1
     5    20    10    1
     6    10    11   ar
     7    11    12   ar
     8    12    13   ar
     9    13     8    1
    10     8     1    1
    11     1     2   ar
    12     2     3   ar
    13     3     4   ar
    14     4     5    1
    15     4     6   ar
    16     6    23    1
    17    23    25    1
    18    25    26   ar
    19    26    27   ar
    20    27    28   ar
    21    28    29   ar
    22    29    31    1
    23    31    32    1
    24    31    33    1
    25    31    34    1
    26    29    30   ar
    27     6     7   ar
    28    13    14   ar
    29    14    15   ar
    30    20    21    1
    31    21    22    1
    32    22    17    1
    33    15    10   ar
    34     7     1   ar
    35    30    25   ar
    36     8     9    1
    37    23    24    1
@<TRIPOS>MOLECULE
*****
 34 37 0 0 0
SMALL
GASTEIGER

@<TRIPOS>ATOM
      1 C          63.3195   88.6321   16.4406 C.ar    1  UNL1        0.2229
      2 N          62.5092   87.9123   17.4777 N.ar    1  UNL1       -0.2110
      3 C          62.3965   86.4172   17.4368 C.ar    1  UNL1        0.1160
      4 C          63.0941   85.6416   16.3588 C.ar    1  UNL1        0.1085
      5 CL         62.9813   84.1464   16.3180 Cl      1  UNL1       -0.0777
      6 C          63.9043   86.3613   15.3218 C.ar    1  UNL1        0.1472
      7 N          64.0171   87.8565   15.3627 N.ar    1  UNL1       -0.1976
      8 N          63.4322   90.1272   16.4815 N.pl3   1  UNL1       -0.2679
      9 H          63.0865   90.6259   17.2568 H       1  UNL1        0.1565
     10 C          65.3507   92.3335   13.0607 C.ar    1  UNL1        0.0675
     11 C          65.8935   92.4867   14.4506 C.ar    1  UNL1        0.0190
     12 C          65.2540   91.7513   15.5909 C.ar    1  UNL1        0.0358
     13 C          64.0717   90.8626   15.3413 C.ar    1  UNL1        0.1344
     14 N          63.5289   90.7094   13.9514 N.ar    1  UNL1       -0.2277
     15 C          64.1684   91.4448   12.8111 C.ar    1  UNL1        0.1147
     16 C          67.9086   95.2751    8.4996 C.3     1  UNL1        0.0897
     17 N          67.2692   94.5397    9.6399 N.3     1  UNL1       -0.2686
     18 C          67.2572   93.0398    9.6524 C.3     1  UNL1        0.0938
     19 C          66.6177   92.3044   10.7927 C.3     1  UNL1        0.1082
     20 N          65.9902   93.0689   11.9204 N.pl3   1  UNL1       -0.3034
     21 C          66.0022   94.5687   11.9079 C.3     1  UNL1        0.1082
     22 C          66.6417   95.3042   10.7676 C.3     1  UNL1        0.0938
     23 N          64.6019   85.5858   14.2438 N.pl3   1  UNL1       -0.2971
     24 H          65.5697   85.4167   14.3068 H       1  UNL1        0.1536
     25 C          63.8248   85.0679   13.0699 C.ar    1  UNL1        0.0493
     26 C          63.0657   86.0201   12.1940 C.ar    1  UNL1        0.0146
     27 C          62.2886   85.5023   11.0201 C.ar    1  UNL1        0.0012
     28 C          62.2706   84.0323   10.7222 C.ar    1  UNL1        0.0039
     29 C          63.0297   83.0802   11.5981 C.ar    1  UNL1        0.0726
     30 C          63.8068   83.5979   12.7719 C.ar    1  UNL1        0.0185
     31 C          63.0117   81.6101   11.3000 C.3     1  UNL1        0.4186
     32 F          62.9937   80.1402   11.0020 F       1  UNL1       -0.1659
     33 F          62.0175   81.3986   12.4031 F       1  UNL1       -0.1659
     34 F          64.0059   81.8216   10.1970 F       1  UNL1       -0.1659
@<TRIPOS>BOND
     1    16    17    1
     2    17    18    1
     3    18    19    1
     4    19    20    1
     5    20    10    1
     6    10    11   ar
     7    11    12   ar
     8    12    13   ar
     9    13     8    1
    10     8     1    1
    11     1     2   ar
    12     2     3   ar
    13     3     4   ar
    14     4     5    1
    15     4     6   ar
    16     6    23    1
    17    23    25    1
    18    25    26   ar
    19    26    27   ar
    20    27    28   ar
    21    28    29   ar
    22    29    31    1
    23    31    32    1
    24    31    33    1
    25    31    34    1
    26    29    30   ar
    27     6     7   ar
    28    13    14   ar
    29    14    15   ar
    30    20    21    1
    31    21    22    1
    32    22    17    1
    33    15    10   ar
    34     7     1   ar
    35    30    25   ar
    36     8     9    1
    37    23    24    1
@<TRIPOS>MOLECULE
*****
 34 37 0 0 0
SMALL
GASTEIGER

@<TRIPOS>ATOM
      1 C          63.9254   87.5187   14.2321 C.ar    1  UNL1        0.2229
      2 N          64.7651   86.5375   14.9951 N.ar    1  UNL1       -0.2110
      3 C          64.8568   85.1124   14.5360 C.ar    1  UNL1        0.1160
      4 C          64.1089   84.6685   13.3139 C.ar    1  UNL1        0.1085
      5 CL         64.2006   83.2434   12.8549 Cl      1  UNL1       -0.0777
      6 C          63.2692   85.6497   12.5509 C.ar    1  UNL1        0.1472
      7 N          63.1774   87.0748   13.0100 N.ar    1  UNL1       -0.1976
      8 N          63.8337   88.9438   14.6911 N.pl3   1  UNL1       -0.2679
      9 H          63.4121   89.1564   15.5550 H       1  UNL1        0.1565
     10 C          65.4853   92.2468   12.1197 C.ar    1  UNL1        0.0675
     11 C          64.2468   91.5144   11.6960 C.ar    1  UNL1        0.0190
     12 C          63.6962   90.4134   12.5531 C.ar    1  UNL1        0.0358
     13 C          64.3842   90.0448   13.8340 C.ar    1  UNL1        0.1344
     14 N          65.6227   90.7771   14.2578 N.ar    1  UNL1       -0.2277
     15 C          66.1733   91.8782   13.4006 C.ar    1  UNL1        0.1147
     16 C          67.6875   96.6508    8.6912 C.3     1  UNL1        0.0897
     17 N          67.1369   95.5498    9.5483 N.3     1  UNL1       -0.2686
     18 C          66.4376   95.8786   10.8340 C.3     1  UNL1        0.0938
     19 C          65.8871   94.7776   11.6911 C.3     1  UNL1        0.1082
     20 N          66.0358   93.3478   11.2626 N.pl3   1  UNL1       -0.3034
     21 C          66.7352   93.0191    9.9770 C.3     1  UNL1        0.1082
     22 C          67.2857   94.1201    9.1199 C.3     1  UNL1        0.0938
     23 N          62.5212   85.2058   11.3288 N.pl3   1  UNL1       -0.2971
     24 H          62.5621   84.2651   11.0413 H       1  UNL1        0.1536
     25 C          61.7111   86.1952   10.5447 C.ar    1  UNL1        0.0493
     26 C          61.5151   86.0031    9.0700 C.ar    1  UNL1        0.0146
     27 C          60.7050   86.9925    8.2859 C.ar    1  UNL1        0.0012
     28 C          60.0909   88.1739    8.9765 C.ar    1  UNL1        0.0039
     29 C          60.2868   88.3660   10.4512 C.ar    1  UNL1        0.0726
     30 C          61.0969   87.3767   11.2353 C.ar    1  UNL1        0.0185
     31 C          59.6726   89.5475   11.1418 C.3     1  UNL1        0.4186
     32 F          59.0584   90.7290   11.8323 F       1  UNL1       -0.1659
     33 F          60.1100   90.4343   10.0138 F       1  UNL1       -0.1659
     34 F          59.2353   88.6608   12.2697 F       1  UNL1       -0.1659
@<TRIPOS>BOND
     1    16    17    1
     2    17    18    1
     3    18    19    1
     4    19    20    1
     5    20    10    1
     6    10    11   ar
     7    11    12   ar
     8    12    13   ar
     9    13     8    1
    10     8     1    1
    11     1     2   ar
    12     2     3   ar
    13     3     4   ar
    14     4     5    1
    15     4     6   ar
    16     6    23    1
    17    23    25    1
    18    25    26   ar
    19    26    27   ar
    20    27    28   ar
    21    28    29   ar
    22    29    31    1
    23    31    32    1
    24    31    33    1
    25    31    34    1
    26    29    30   ar
    27     6     7   ar
    28    13    14   ar
    29    14    15   ar
    30    20    21    1
    31    21    22    1
    32    22    17    1
    33    15    10   ar
    34     7     1   ar
    35    30    25   ar
    36     8     9    1
    37    23    24    1
@<TRIPOS>MOLECULE
*****
 34 37 0 0 0
SMALL
GASTEIGER

@<TRIPOS>ATOM
      1 C          64.5334   90.3306   14.0821 C.ar    1  UNL1        0.2229
      2 N          65.6110   91.3674   14.2002 N.ar    1  UNL1       -0.2110
      3 C          65.8438   92.3381   13.0807 C.ar    1  UNL1        0.1160
      4 C          64.9991   92.2721   11.8429 C.ar    1  UNL1        0.1085
      5 CL         65.2319   93.2429   10.7233 Cl      1  UNL1       -0.0777
      6 C          63.9215   91.2353   11.7247 C.ar    1  UNL1        0.1472
      7 N          63.6887   90.2646   12.8443 N.ar    1  UNL1       -0.1976
      8 N          64.3007   89.3599   15.2017 N.pl3   1  UNL1       -0.2679
      9 H          64.3248   89.6706   16.1355 H       1  UNL1        0.1565
     10 C          63.4920   85.0276   14.2918 C.ar    1  UNL1        0.0675
     11 C          63.7194   85.4668   15.7079 C.ar    1  UNL1        0.0190
     12 C          63.9890   86.9109   16.0112 C.ar    1  UNL1        0.0358
     13 C          64.0311   87.9158   14.8984 C.ar    1  UNL1        0.1344
     14 N          63.8037   87.4766   13.4823 N.ar    1  UNL1       -0.2277
     15 C          63.5342   86.0325   13.1790 C.ar    1  UNL1        0.1147
     16 C          62.4139   79.2513   13.0788 C.3     1  UNL1        0.0897
     17 N          62.6834   80.6954   13.3820 N.3     1  UNL1       -0.2686
     18 C          63.8364   81.3967   12.7273 C.3     1  UNL1        0.0938
     19 C          64.1059   82.8408   13.0306 C.3     1  UNL1        0.1082
     20 N          63.2225   83.5835   13.9886 N.pl3   1  UNL1       -0.3034
     21 C          62.0695   82.8822   14.6433 C.3     1  UNL1        0.1082
     22 C          61.7999   81.4381   14.3400 C.3     1  UNL1        0.0938
     23 N          63.0768   91.1693   10.4870 N.pl3   1  UNL1       -0.2971
     24 H          63.1528   91.8715    9.8011 H       1  UNL1        0.1536
     25 C          62.1162   90.0334   10.2943 C.ar    1  UNL1        0.0493
     26 C          60.6387   90.2925   10.2939 C.ar    1  UNL1        0.0146
     27 C          59.6782   89.1566   10.1012 C.ar    1  UNL1        0.0012
     28 C          60.1951   87.7617    9.9088 C.ar    1  UNL1        0.0039
     29 C          61.6725   87.5027    9.9092 C.ar    1  UNL1        0.0726
     30 C          62.6331   88.6385   10.1019 C.ar    1  UNL1        0.0185
     31 C          62.1894   86.1077    9.7168 C.3     1  UNL1        0.4186
     32 F          62.7063   84.7128    9.5243 F       1  UNL1       -0.1659
     33 F          61.2892   85.6227   10.8142 F       1  UNL1       -0.1659
     34 F          63.0897   86.5927    8.6194 F       1  UNL1       -0.1659
@<TRIPOS>BOND
     1    16    17    1
     2    17    18    1
     3    18    19    1
     4    19    20    1
     5    20    10    1
     6    10    11   ar
     7    11    12   ar
     8    12    13   ar
     9    13     8    1
    10     8     1    1
    11     1     2   ar
    12     2     3   ar
    13     3     4   ar
    14     4     5    1
    15     4     6   ar
    16     6    23    1
    17    23    25    1
    18    25    26   ar
    19    26    27   ar
    20    27    28   ar
    21    28    29   ar
    22    29    31    1
    23    31    32    1
    24    31    33    1
    25    31    34    1
    26    29    30   ar
    27     6     7   ar
    28    13    14   ar
    29    14    15   ar
    30    20    21    1
    31    21    22    1
    32    22    17    1
    33    15    10   ar
    34     7     1   ar
    35    30    25   ar
    36     8     9    1
    37    23    24    1
@<TRIPOS>MOLECULE
*****
 34 37 0 0 0
SMALL
GASTEIGER

@<TRIPOS>ATOM
      1 C          63.0293   86.0288   15.5557 C.ar    1  UNL1        0.2229
      2 N          62.2719   84.9815   16.3170 N.ar    1  UNL1       -0.2110
      3 C          62.0690   83.6203   15.7203 C.ar    1  UNL1        0.1160
      4 C          62.6235   83.3064   14.3623 C.ar    1  UNL1        0.1085
      5 CL         62.4205   81.9452   13.7657 Cl      1  UNL1       -0.0777
      6 C          63.3808   84.3537   13.6011 C.ar    1  UNL1        0.1472
      7 N          63.5838   85.7149   14.1977 N.ar    1  UNL1       -0.1976
      8 N          63.2322   87.3900   16.1523 N.pl3   1  UNL1       -0.2679
      9 H          63.0674   87.5364   17.1118 H       1  UNL1        0.1565
     10 C          64.5941   90.8043   13.5566 C.ar    1  UNL1        0.0675
     11 C          64.6593   90.9254   15.0503 C.ar    1  UNL1        0.0190
     12 C          64.2053   89.7872   15.9155 C.ar    1  UNL1        0.0358
     13 C          63.6861   88.5281   15.2871 C.ar    1  UNL1        0.1344
     14 N          63.6210   88.4071   13.7934 N.ar    1  UNL1       -0.2277
     15 C          64.0749   89.5452   12.9282 C.ar    1  UNL1        0.1147
     16 C          66.4099   95.3568   10.0957 C.3     1  UNL1        0.0897
     17 N          65.9560   94.2187   10.9610 N.3     1  UNL1       -0.2686
     18 C          66.3933   94.1451   12.3939 C.3     1  UNL1        0.0938
     19 C          65.9393   93.0070   13.2591 C.3     1  UNL1        0.1082
     20 N          65.0480   91.9424   12.6914 N.pl3   1  UNL1       -0.3034
     21 C          64.6107   92.0160   11.2585 C.3     1  UNL1        0.1082
     22 C          65.0647   93.1541   10.3933 C.3     1  UNL1        0.0938
     23 N          63.9353   84.0398   12.2431 N.pl3   1  UNL1       -0.2971
     24 H          64.7064   83.4342   12.1542 H       1  UNL1        0.1536
     25 C          63.3149   84.6486   11.0206 C.ar    1  UNL1        0.0493
     26 C          63.6936   84.1473    9.6585 C.ar    1  UNL1        0.0146
     27 C          63.0732   84.7561    8.4360 C.ar    1  UNL1        0.0012
     28 C          62.0741   85.8661    8.5756 C.ar    1  UNL1        0.0039
     29 C          61.6954   86.3674    9.9377 C.ar    1  UNL1        0.0726
     30 C          62.3158   85.7587   11.1602 C.ar    1  UNL1        0.0185
     31 C          60.6962   87.4775   10.0773 C.3     1  UNL1        0.4186
     32 F          59.6971   88.5876   10.2169 F       1  UNL1       -0.1659
     33 F          60.9076   87.8486    8.6394 F       1  UNL1       -0.1659
     34 F          60.4849   87.1065   11.5152 F       1  UNL1       -0.1659
@<TRIPOS>BOND
     1    16    17    1
     2    17    18    1
     3    18    19    1
     4    19    20    1
     5    20    10    1
     6    10    11   ar
     7    11    12   ar
     8    12    13   ar
     9    13     8    1
    10     8     1    1
    11     1     2   ar
    12     2     3   ar
    13     3     4   ar
    14     4     5    1
    15     4     6   ar
    16     6    23    1
    17    23    25    1
    18    25    26   ar
    19    26    27   ar
    20    27    28   ar
    21    28    29   ar
    22    29    31    1
    23    31    32    1
    24    31    33    1
    25    31    34    1
    26    29    30   ar
    27     6     7   ar
    28    13    14   ar
    29    14    15   ar
    30    20    21    1
    31    21    22    1
    32    22    17    1
    33    15    10   ar
    34     7     1   ar
    35    30    25   ar
    36     8     9    1
    37    23    24    1
@<TRIPOS>MOLECULE
*****
 34 37 0 0 0
SMALL
GASTEIGER

@<TRIPOS>ATOM
      1 C          60.8298   88.6258   11.1511 C.ar    1  UNL1        0.2229
      2 N          60.4011   89.1461    9.8111 N.ar    1  UNL1       -0.2110
      3 C          60.3954   88.2349    8.6196 C.ar    1  UNL1        0.1160
      4 C          60.8183   86.8035    8.7680 C.ar    1  UNL1        0.1085
      5 CL         60.8126   85.8923    7.5765 Cl      1  UNL1       -0.0777
      6 C          61.2470   86.2832   10.1080 C.ar    1  UNL1        0.1472
      7 N          61.2527   87.1943   11.2996 N.ar    1  UNL1       -0.1976
      8 N          60.8355   89.5370   12.3426 N.pl3   1  UNL1       -0.2679
      9 H          59.9913   89.7542   12.8002 H       1  UNL1        0.1565
     10 C          64.7112   91.2774   13.8257 C.ar    1  UNL1        0.0675
     11 C          63.8992   90.3861   14.7179 C.ar    1  UNL1        0.0190
     12 C          62.6073   89.8060   14.2236 C.ar    1  UNL1        0.0358
     13 C          62.1274   90.1171   12.8370 C.ar    1  UNL1        0.1344
     14 N          62.9394   91.0084   11.9447 N.ar    1  UNL1       -0.2277
     15 C          64.2313   91.5886   12.4390 C.ar    1  UNL1        0.1147
     16 C          69.8789   93.5980   15.8031 C.3     1  UNL1        0.0897
     17 N          68.5870   93.0179   15.3087 N.3     1  UNL1       -0.2686
     18 C          68.5135   92.4086   13.9400 C.3     1  UNL1        0.0938
     19 C          67.2216   91.8284   13.4457 C.3     1  UNL1        0.1082
     20 N          66.0031   91.8576   14.3200 N.pl3   1  UNL1       -0.3034
     21 C          66.0766   92.4668   15.6887 C.3     1  UNL1        0.1082
     22 C          67.3685   93.0470   16.1831 C.3     1  UNL1        0.0938
     23 N          61.6699   84.8517   10.2564 N.pl3   1  UNL1       -0.2971
     24 H          61.2775   84.1598    9.6764 H       1  UNL1        0.1536
     25 C          62.6907   84.4745   11.2888 C.ar    1  UNL1        0.0493
     26 C          63.7166   83.4244   10.9804 C.ar    1  UNL1        0.0146
     27 C          64.7374   83.0472   12.0126 C.ar    1  UNL1        0.0012
     28 C          64.7324   83.7200   13.3532 C.ar    1  UNL1        0.0039
     29 C          63.7066   84.7700   13.6616 C.ar    1  UNL1        0.0726
     30 C          62.6857   85.1472   12.6294 C.ar    1  UNL1        0.0185
     31 C          63.7016   85.4428   15.0023 C.3     1  UNL1        0.4186
     32 F          63.6967   86.1156   16.3429 F       1  UNL1       -0.1659
     33 F          62.4826   84.6599   15.3908 F       1  UNL1       -0.1659
     34 F          64.9206   86.2257   14.6139 F       1  UNL1       -0.1659
@<TRIPOS>BOND
     1    16    17    1
     2    17    18    1
     3    18    19    1
     4    19    20    1
     5    20    10    1
     6    10    11   ar
     7    11    12   ar
     8    12    13   ar
     9    13     8    1
    10     8     1    1
    11     1     2   ar
    12     2     3   ar
    13     3     4   ar
    14     4     5    1
    15     4     6   ar
    16     6    23    1
    17    23    25    1
    18    25    26   ar
    19    26    27   ar
    20    27    28   ar
    21    28    29   ar
    22    29    31    1
    23    31    32    1
    24    31    33    1
    25    31    34    1
    26    29    30   ar
    27     6     7   ar
    28    13    14   ar
    29    14    15   ar
    30    20    21    1
    31    21    22    1
    32    22    17    1
    33    15    10   ar
    34     7     1   ar
    35    30    25   ar
    36     8     9    1
    37    23    24    1
