@<TRIPOS>MOLECULE
*****
 31 34 0 0 0
SMALL
GASTEIGER

@<TRIPOS>ATOM
      1 N          63.0441   84.4430   13.2949 N.am    1  UNL1       -0.2469
      2 C          62.4681   85.4281   12.3214 C.3     1  UNL1        0.1268
      3 C          62.9729   86.7920   12.6887 C.ar    1  UNL1        0.0200
      4 C          63.8608   86.6498   13.8893 C.ar    1  UNL1        0.1322
      5 N          64.5145   87.8607   14.4863 N.ar    1  UNL1       -0.2456
      6 C          64.2803   89.2138   13.8827 C.ar    1  UNL1        0.0568
      7 C          64.9341   90.4247   14.4797 C.3     1  UNL1        0.0518
      8 C          63.3925   89.3559   12.6822 C.ar    1  UNL1        0.0068
      9 C          62.7387   88.1450   12.0851 C.ar    1  UNL1       -0.0015
     10 C          63.9048   85.1980   14.2640 C.2     1  UNL1        0.2705
     11 O          64.6744   84.6053   15.4070 O.2     1  UNL1       -0.2679
     12 C          61.8508   88.2873   10.8845 C.ar    1  UNL1        0.0102
     13 C          62.2325   87.6365    9.5881 C.ar    1  UNL1        0.0017
     14 C          61.3445   87.7788    8.3875 C.ar    1  UNL1        0.0114
     15 C          60.0749   88.5719    8.4835 C.ar    1  UNL1        0.0585
     16 CL         59.1870   88.7142    7.2829 Cl      1  UNL1       -0.0822
     17 C          59.6932   89.2226    9.7799 C.ar    1  UNL1        0.0228
     18 C          60.5812   89.0803   10.9804 C.ar    1  UNL1        0.0585
     19 CL         60.1996   89.7311   12.2769 Cl      1  UNL1       -0.0822
     20 C          63.5668   82.0751   12.3622 C.ar    1  UNL1        0.1523
     21 C          63.3245   80.5948   12.3661 C.ar    1  UNL1        0.0382
     22 C          62.3174   80.0020   13.3065 C.ar    1  UNL1        0.0032
     23 C          61.5526   80.8896   14.2431 C.ar    1  UNL1        0.0015
     24 C          61.7949   82.3699   14.2392 C.ar    1  UNL1        0.0180
     25 C          62.8019   82.9627   13.2988 C.ar    1  UNL1        0.0885
     26 C          64.1524   83.1067   10.0507 C.3     1  UNL1        0.2525
     27 O          64.5738   82.6678   11.4217 O.3     1  UNL1       -0.4702
     28 C          63.1583   90.7091   12.0785 C.3     1  UNL1        0.0934
     29 N          64.0571   91.2090   10.9866 N.3     1  UNL1       -0.3174
     30 H          64.9973   91.3478   11.3570 H       1  UNL1        0.1192
     31 H          63.6982   92.0945   10.6296 H       1  UNL1        0.1192
@<TRIPOS>BOND
     1    26    27    1
     2    27    20    1
     3    20    21   ar
     4    21    22   ar
     5    22    23   ar
     6    23    24   ar
     7    24    25   ar
     8    25     1    1
     9     1     2    1
    10     2     3    1
    11     3     4   ar
    12     4     5   ar
    13     5     6   ar
    14     6     7    1
    15     6     8   ar
    16     8    28    1
    17    28    29    1
    18     8     9   ar
    19     9    12    1
    20    12    13   ar
    21    13    14   ar
    22    14    15   ar
    23    15    16    1
    24    15    17   ar
    25    17    18   ar
    26    18    19    1
    27     4    10    1
    28    10    11    2
    29    25    20   ar
    30    10     1   am
    31     9     3   ar
    32    18    12   ar
    33    29    30    1
    34    29    31    1
@<TRIPOS>MOLECULE
*****
 31 34 0 0 0
SMALL
GASTEIGER

@<TRIPOS>ATOM
      1 N          62.8555   90.1440   11.6854 N.am    1  UNL1       -0.2469
      2 C          63.8453   91.1892   11.2638 C.3     1  UNL1        0.1268
      3 C          64.5589   91.6735   12.4911 C.ar    1  UNL1        0.0200
      4 C          64.0100   90.9276   13.6712 C.ar    1  UNL1        0.1322
      5 N          64.5399   91.2056   15.0467 N.ar    1  UNL1       -0.2456
      6 C          65.6185   92.2295   15.2421 C.ar    1  UNL1        0.0568
      7 C          66.1483   92.5074   16.6177 C.3     1  UNL1        0.0518
      8 C          66.1673   92.9753   14.0622 C.ar    1  UNL1        0.0068
      9 C          65.6375   92.6974   12.6866 C.ar    1  UNL1       -0.0015
     10 C          62.9573   89.9823   13.1732 C.2     1  UNL1        0.2705
     11 O          62.1483   89.0407   14.0151 O.2     1  UNL1       -0.2679
     12 C          66.1864   93.4433   11.5066 C.ar    1  UNL1        0.0102
     13 C          65.5607   94.7383   11.0808 C.ar    1  UNL1        0.0017
     14 C          66.1097   95.4842    9.9008 C.ar    1  UNL1        0.0114
     15 C          67.2843   94.9350    9.1467 C.ar    1  UNL1        0.0585
     16 CL         67.8333   95.6809    7.9667 Cl      1  UNL1       -0.0822
     17 C          67.9100   93.6400    9.5725 C.ar    1  UNL1        0.0228
     18 C          67.3611   92.8941   10.7525 C.ar    1  UNL1        0.0585
     19 CL         67.9867   91.5991   11.1784 Cl      1  UNL1       -0.0822
     20 C          61.8918   87.8933   10.8161 C.ar    1  UNL1        0.1523
     21 C          60.9631   87.1417    9.9090 C.ar    1  UNL1        0.0382
     22 C          60.0695   87.8892    8.9643 C.ar    1  UNL1        0.0032
     23 C          60.1044   89.3883    8.9265 C.ar    1  UNL1        0.0015
     24 C          61.0331   90.1399    9.8336 C.ar    1  UNL1        0.0180
     25 C          61.9268   89.3924   10.7783 C.ar    1  UNL1        0.0885
     26 C          62.6020   85.6700   11.9575 C.3     1  UNL1        0.2525
     27 O          62.7855   87.1457   11.7608 O.3     1  UNL1       -0.4702
     28 C          67.2460   93.9992   14.2577 C.3     1  UNL1        0.0934
     29 N          68.5689   93.5937   14.8370 N.3     1  UNL1       -0.3174
     30 H          68.4396   93.2953   15.8037 H       1  UNL1        0.1192
     31 H          69.2099   94.3867   14.8088 H       1  UNL1        0.1192
@<TRIPOS>BOND
     1    26    27    1
     2    27    20    1
     3    20    21   ar
     4    21    22   ar
     5    22    23   ar
     6    23    24   ar
     7    24    25   ar
     8    25     1    1
     9     1     2    1
    10     2     3    1
    11     3     4   ar
    12     4     5   ar
    13     5     6   ar
    14     6     7    1
    15     6     8   ar
    16     8    28    1
    17    28    29    1
    18     8     9   ar
    19     9    12    1
    20    12    13   ar
    21    13    14   ar
    22    14    15   ar
    23    15    16    1
    24    15    17   ar
    25    17    18   ar
    26    18    19    1
    27     4    10    1
    28    10    11    2
    29    25    20   ar
    30    10     1   am
    31     9     3   ar
    32    18    12   ar
    33    29    30    1
    34    29    31    1
@<TRIPOS>MOLECULE
*****
 31 34 0 0 0
SMALL
GASTEIGER

@<TRIPOS>ATOM
      1 N          62.9924   90.0268   11.4283 N.am    1  UNL1       -0.2469
      2 C          63.9125   91.1485   11.0475 C.3     1  UNL1        0.1268
      3 C          64.5828   91.6420   12.2953 C.ar    1  UNL1        0.0200
      4 C          64.0771   90.8253   13.4473 C.ar    1  UNL1        0.1322
      5 N          64.5770   91.0961   14.8353 N.ar    1  UNL1       -0.2456
      6 C          65.5826   92.1837   15.0714 C.ar    1  UNL1        0.0568
      7 C          66.0825   92.4545   16.4596 C.3     1  UNL1        0.0518
      8 C          66.0884   93.0005   13.9195 C.ar    1  UNL1        0.0068
      9 C          65.5885   92.7297   12.5313 C.ar    1  UNL1       -0.0015
     10 C          63.0941   89.8270   12.9115 C.2     1  UNL1        0.2705
     11 O          62.3445   88.8078   13.7173 O.2     1  UNL1       -0.2679
     12 C          66.0943   93.5465   11.3794 C.ar    1  UNL1        0.0102
     13 C          65.4368   94.8510   11.0391 C.ar    1  UNL1        0.0017
     14 C          65.9427   95.6678    9.8871 C.ar    1  UNL1        0.0114
     15 C          67.1060   95.1800    9.0755 C.ar    1  UNL1        0.0585
     16 CL         67.6119   95.9967    7.9235 Cl      1  UNL1       -0.0822
     17 C          67.7635   93.8754    9.4158 C.ar    1  UNL1        0.0228
     18 C          67.2576   93.0587   10.5677 C.ar    1  UNL1        0.0585
     19 CL         67.9151   91.7541   10.9081 Cl      1  UNL1       -0.0822
     20 C          60.7467   89.7350   10.1549 C.ar    1  UNL1        0.1523
     21 C          59.8775   88.9506    9.2171 C.ar    1  UNL1        0.0382
     22 C          60.3847   87.6737    8.6152 C.ar    1  UNL1        0.0032
     23 C          61.7612   87.1812    8.9509 C.ar    1  UNL1        0.0015
     24 C          62.6304   87.9656    9.8887 C.ar    1  UNL1        0.0180
     25 C          62.1231   89.2424   10.4906 C.ar    1  UNL1        0.0885
     26 C          59.0173   90.9974   11.6264 C.3     1  UNL1        0.2525
     27 O          60.2394   91.0118   10.7568 O.3     1  UNL1       -0.4702
     28 C          67.0941   94.0881   14.1556 C.3     1  UNL1        0.0934
     29 N          68.3758   93.7819   14.8722 N.3     1  UNL1       -0.3174
     30 H          68.1723   93.5250   15.8381 H       1  UNL1        0.1192
     31 H          68.9778   94.6051   14.8589 H       1  UNL1        0.1192
@<TRIPOS>BOND
     1    26    27    1
     2    27    20    1
     3    20    21   ar
     4    21    22   ar
     5    22    23   ar
     6    23    24   ar
     7    24    25   ar
     8    25     1    1
     9     1     2    1
    10     2     3    1
    11     3     4   ar
    12     4     5   ar
    13     5     6   ar
    14     6     7    1
    15     6     8   ar
    16     8    28    1
    17    28    29    1
    18     8     9   ar
    19     9    12    1
    20    12    13   ar
    21    13    14   ar
    22    14    15   ar
    23    15    16    1
    24    15    17   ar
    25    17    18   ar
    26    18    19    1
    27     4    10    1
    28    10    11    2
    29    25    20   ar
    30    10     1   am
    31     9     3   ar
    32    18    12   ar
    33    29    30    1
    34    29    31    1
@<TRIPOS>MOLECULE
*****
 31 34 0 0 0
SMALL
GASTEIGER

@<TRIPOS>ATOM
      1 N          62.1539   89.2897   10.4632 N.am    1  UNL1       -0.2469
      2 C          62.5073   88.9119   11.8712 C.3     1  UNL1        0.1268
      3 C          63.4725   89.9328   12.3966 C.ar    1  UNL1        0.0200
      4 C          63.7156   90.9416   11.3134 C.ar    1  UNL1        0.1322
      5 N          64.6476   92.0918   11.5551 N.ar    1  UNL1       -0.2456
      6 C          65.3366   92.2332   12.8799 C.ar    1  UNL1        0.0568
      7 C          66.2686   93.3834   13.1216 C.3     1  UNL1        0.0518
      8 C          65.0936   91.2244   13.9631 C.ar    1  UNL1        0.0068
      9 C          64.1615   90.0742   13.7215 C.ar    1  UNL1       -0.0015
     10 C          62.9006   90.5441   10.1185 C.2     1  UNL1        0.2705
     11 O          62.8425   91.2730    8.8088 O.2     1  UNL1       -0.2679
     12 C          63.9185   89.0654   14.8047 C.ar    1  UNL1        0.0102
     13 C          64.3377   87.6386   14.6086 C.ar    1  UNL1        0.0017
     14 C          64.0947   86.6300   15.6919 C.ar    1  UNL1        0.0114
     15 C          63.4325   87.0481   16.9712 C.ar    1  UNL1        0.0585
     16 CL         63.1895   86.0394   18.0545 Cl      1  UNL1       -0.0822
     17 C          63.0133   88.4749   17.1673 C.ar    1  UNL1        0.0228
     18 C          63.2564   89.4836   16.0840 C.ar    1  UNL1        0.0585
     19 CL         62.8372   90.9104   16.2800 Cl      1  UNL1       -0.0822
     20 C          61.3427   87.0564    9.4123 C.ar    1  UNL1        0.1523
     21 C          60.4068   86.3108    8.5078 C.ar    1  UNL1        0.0382
     22 C          59.3461   87.0527    7.7498 C.ar    1  UNL1        0.0032
     23 C          59.2214   88.5403    7.8963 C.ar    1  UNL1        0.0015
     24 C          60.1573   89.2859    8.8008 C.ar    1  UNL1        0.0180
     25 C          61.2180   88.5440    9.5588 C.ar    1  UNL1        0.0885
     26 C          62.0154   85.3249   11.2287 C.3     1  UNL1        0.2525
     27 O          62.4033   86.3144   10.1702 O.3     1  UNL1       -0.4702
     28 C          65.7826   91.3659   15.2880 C.3     1  UNL1        0.0934
     29 N          65.5827   92.6053   16.1088 N.3     1  UNL1       -0.3174
     30 H          65.9857   93.4051   15.6206 H       1  UNL1        0.1192
     31 H          66.0416   92.4922   17.0127 H       1  UNL1        0.1192
@<TRIPOS>BOND
     1    26    27    1
     2    27    20    1
     3    20    21   ar
     4    21    22   ar
     5    22    23   ar
     6    23    24   ar
     7    24    25   ar
     8    25     1    1
     9     1     2    1
    10     2     3    1
    11     3     4   ar
    12     4     5   ar
    13     5     6   ar
    14     6     7    1
    15     6     8   ar
    16     8    28    1
    17    28    29    1
    18     8     9   ar
    19     9    12    1
    20    12    13   ar
    21    13    14   ar
    22    14    15   ar
    23    15    16    1
    24    15    17   ar
    25    17    18   ar
    26    18    19    1
    27     4    10    1
    28    10    11    2
    29    25    20   ar
    30    10     1   am
    31     9     3   ar
    32    18    12   ar
    33    29    30    1
    34    29    31    1
@<TRIPOS>MOLECULE
*****
 31 34 0 0 0
SMALL
GASTEIGER

@<TRIPOS>ATOM
      1 N          63.2346   89.9455   12.0548 N.am    1  UNL1       -0.2469
      2 C          63.2063   88.4622   11.8340 C.3     1  UNL1        0.1268
      3 C          62.2093   88.1737   10.7510 C.ar    1  UNL1        0.0200
      4 C          61.6215   89.4788   10.3025 C.ar    1  UNL1        0.1322
      5 N          60.5852   89.5015    9.2183 N.ar    1  UNL1       -0.2456
      6 C          60.1367   88.2190    8.5826 C.ar    1  UNL1        0.0568
      7 C          59.1004   88.2417    7.4983 C.3     1  UNL1        0.0518
      8 C          60.7245   86.9140    9.0311 C.ar    1  UNL1        0.0068
      9 C          61.7609   86.8913   10.1153 C.ar    1  UNL1       -0.0015
     10 C          62.2551   90.5739   11.1083 C.2     1  UNL1        0.2705
     11 O          61.9610   92.0399   10.9887 O.2     1  UNL1       -0.2679
     12 C          62.3487   85.5861   10.5638 C.ar    1  UNL1        0.0102
     13 C          62.0619   85.0686   11.9421 C.ar    1  UNL1        0.0017
     14 C          62.6497   83.7634   12.3905 C.ar    1  UNL1        0.0114
     15 C          63.5243   82.9759   11.4605 C.ar    1  UNL1        0.0585
     16 CL         64.1121   81.6707   11.9089 Cl      1  UNL1       -0.0822
     17 C          63.8111   83.4934   10.0822 C.ar    1  UNL1        0.0228
     18 C          63.2233   84.7986    9.6338 C.ar    1  UNL1        0.0585
     19 CL         63.5101   85.3162    8.2555 Cl      1  UNL1       -0.0822
     20 C          63.8477   90.5006   14.5178 C.ar    1  UNL1        0.1523
     21 C          64.7050   91.2280   15.5107 C.ar    1  UNL1        0.0382
     22 C          65.8063   92.1278   15.0338 C.ar    1  UNL1        0.0032
     23 C          66.0504   92.3001   13.5639 C.ar    1  UNL1        0.0015
     24 C          65.1931   91.5727   12.5710 C.ar    1  UNL1        0.0180
     25 C          64.0918   90.6729   13.0479 C.ar    1  UNL1        0.0885
     26 C          62.7691   89.0653   16.3957 C.3     1  UNL1        0.2525
     27 O          62.7464   89.6009   14.9948 O.3     1  UNL1       -0.4702
     28 C          60.2760   85.6314    8.3953 C.3     1  UNL1        0.0934
     29 N          60.5610   85.3733    6.9454 N.3     1  UNL1       -0.3174
     30 H          60.0410   86.0384    6.3731 H       1  UNL1        0.1192
     31 H          60.2757   84.4235    6.7067 H       1  UNL1        0.1192
@<TRIPOS>BOND
     1    26    27    1
     2    27    20    1
     3    20    21   ar
     4    21    22   ar
     5    22    23   ar
     6    23    24   ar
     7    24    25   ar
     8    25     1    1
     9     1     2    1
    10     2     3    1
    11     3     4   ar
    12     4     5   ar
    13     5     6   ar
    14     6     7    1
    15     6     8   ar
    16     8    28    1
    17    28    29    1
    18     8     9   ar
    19     9    12    1
    20    12    13   ar
    21    13    14   ar
    22    14    15   ar
    23    15    16    1
    24    15    17   ar
    25    17    18   ar
    26    18    19    1
    27     4    10    1
    28    10    11    2
    29    25    20   ar
    30    10     1   am
    31     9     3   ar
    32    18    12   ar
    33    29    30    1
    34    29    31    1
@<TRIPOS>MOLECULE
*****
 31 34 0 0 0
SMALL
GASTEIGER

@<TRIPOS>ATOM
      1 N          63.0813   89.8381   12.0382 N.am    1  UNL1       -0.2469
      2 C          63.0919   88.3615   11.7744 C.3     1  UNL1        0.1268
      3 C          62.1188   88.0814   10.6678 C.ar    1  UNL1        0.0200
      4 C          61.5068   89.3848   10.2477 C.ar    1  UNL1        0.1322
      5 N          60.4869   89.4146    9.1482 N.ar    1  UNL1       -0.2456
      6 C          60.0790   88.1410    8.4689 C.ar    1  UNL1        0.0568
      7 C          59.0591   88.1709    7.3693 C.3     1  UNL1        0.0518
      8 C          60.6910   86.8376    8.8890 C.ar    1  UNL1        0.0068
      9 C          61.7110   86.8078    9.9885 C.ar    1  UNL1       -0.0015
     10 C          62.1016   90.4706   11.0946 C.2     1  UNL1        0.2705
     11 O          61.7743   91.9321   11.0125 O.2     1  UNL1       -0.2679
     12 C          62.3230   85.5043   10.4086 C.ar    1  UNL1        0.0102
     13 C          62.0120   84.9304   11.7591 C.ar    1  UNL1        0.0017
     14 C          62.6240   83.6270   12.1791 C.ar    1  UNL1        0.0114
     15 C          63.5470   82.8974   11.2486 C.ar    1  UNL1        0.0585
     16 CL         64.1591   81.5940   11.6686 Cl      1  UNL1       -0.0822
     17 C          63.8580   83.4713    9.8981 C.ar    1  UNL1        0.0228
     18 C          63.2460   84.7748    9.4781 C.ar    1  UNL1        0.0585
     19 CL         63.5569   85.3487    8.1276 Cl      1  UNL1       -0.0822
     20 C          64.9076   91.5866   12.6359 C.ar    1  UNL1        0.1523
     21 C          65.7319   92.3047   13.6631 C.ar    1  UNL1        0.0382
     22 C          65.5543   91.9925   15.1194 C.ar    1  UNL1        0.0032
     23 C          64.5522   90.9621   15.5487 C.ar    1  UNL1        0.0015
     24 C          63.7279   90.2440   14.5216 C.ar    1  UNL1        0.0180
     25 C          63.9056   90.5563   13.0652 C.ar    1  UNL1        0.0885
     26 C          65.5297   93.2671   10.7547 C.3     1  UNL1        0.2525
     27 O          65.0854   91.8989   11.1796 O.3     1  UNL1       -0.4702
     28 C          60.2831   85.5640    8.2096 C.3     1  UNL1        0.0934
     29 N          60.6360   85.3357    6.7696 N.3     1  UNL1       -0.3174
     30 H          60.1369   86.0076    6.1866 H       1  UNL1        0.1192
     31 H          60.3702   84.3885    6.5005 H       1  UNL1        0.1192
@<TRIPOS>BOND
     1    26    27    1
     2    27    20    1
     3    20    21   ar
     4    21    22   ar
     5    22    23   ar
     6    23    24   ar
     7    24    25   ar
     8    25     1    1
     9     1     2    1
    10     2     3    1
    11     3     4   ar
    12     4     5   ar
    13     5     6   ar
    14     6     7    1
    15     6     8   ar
    16     8    28    1
    17    28    29    1
    18     8     9   ar
    19     9    12    1
    20    12    13   ar
    21    13    14   ar
    22    14    15   ar
    23    15    16    1
    24    15    17   ar
    25    17    18   ar
    26    18    19    1
    27     4    10    1
    28    10    11    2
    29    25    20   ar
    30    10     1   am
    31     9     3   ar
    32    18    12   ar
    33    29    30    1
    34    29    31    1
@<TRIPOS>MOLECULE
*****
 31 34 0 0 0
SMALL
GASTEIGER

@<TRIPOS>ATOM
      1 N          61.5329   87.1052   10.2363 N.am    1  UNL1       -0.2469
      2 C          61.8754   85.6722   10.5179 C.3     1  UNL1        0.1268
      3 C          62.7178   85.6323   11.7583 C.ar    1  UNL1        0.0200
      4 C          62.8960   87.0405   12.2433 C.ar    1  UNL1        0.1322
      5 N          63.7021   87.3119   13.4788 N.ar    1  UNL1       -0.2456
      6 C          64.3300   86.1751   14.2294 C.ar    1  UNL1        0.0568
      7 C          65.1362   86.4466   15.4649 C.3     1  UNL1        0.0518
      8 C          64.1519   84.7670   13.7445 C.ar    1  UNL1        0.0068
      9 C          63.3457   84.4955   12.5089 C.ar    1  UNL1       -0.0015
     10 C          62.1637   87.9508   11.3026 C.2     1  UNL1        0.2705
     11 O          62.0773   89.4445   11.4094 O.2     1  UNL1       -0.2679
     12 C          63.1676   83.0872   12.0241 C.ar    1  UNL1        0.0102
     13 C          62.3961   82.1014   12.8504 C.ar    1  UNL1        0.0017
     14 C          62.2180   80.6932   12.3655 C.ar    1  UNL1        0.0114
     15 C          62.8114   80.2708   11.0542 C.ar    1  UNL1        0.0585
     16 CL         62.6333   78.8625   10.5693 Cl      1  UNL1       -0.0822
     17 C          63.5829   81.2566   10.2279 C.ar    1  UNL1        0.0228
     18 C          63.7610   82.6648   10.7128 C.ar    1  UNL1        0.0585
     19 CL         64.5325   83.6506    9.8865 Cl      1  UNL1       -0.0822
     20 C          60.3748   86.6895    7.9480 C.ar    1  UNL1        0.1523
     21 C          59.5469   87.1892    6.8013 C.ar    1  UNL1        0.0382
     22 C          59.0490   88.6042    6.7962 C.ar    1  UNL1        0.0032
     23 C          59.3791   89.5195    7.9378 C.ar    1  UNL1        0.0015
     24 C          60.2071   89.0198    9.0845 C.ar    1  UNL1        0.0180
     25 C          60.7049   87.6048    9.0896 C.ar    1  UNL1        0.0885
     26 C          61.8946   84.8354    6.9467 C.3     1  UNL1        0.2525
     27 O          60.8726   85.2745    7.9530 O.3     1  UNL1       -0.4702
     28 C          64.7798   83.6301   14.4951 C.3     1  UNL1        0.0934
     29 N          64.1287   83.1021   15.7390 N.3     1  UNL1       -0.3174
     30 H          64.1507   83.8186   16.4647 H       1  UNL1        0.1192
     31 H          64.6320   82.2758   16.0618 H       1  UNL1        0.1192
@<TRIPOS>BOND
     1    26    27    1
     2    27    20    1
     3    20    21   ar
     4    21    22   ar
     5    22    23   ar
     6    23    24   ar
     7    24    25   ar
     8    25     1    1
     9     1     2    1
    10     2     3    1
    11     3     4   ar
    12     4     5   ar
    13     5     6   ar
    14     6     7    1
    15     6     8   ar
    16     8    28    1
    17    28    29    1
    18     8     9   ar
    19     9    12    1
    20    12    13   ar
    21    13    14   ar
    22    14    15   ar
    23    15    16    1
    24    15    17   ar
    25    17    18   ar
    26    18    19    1
    27     4    10    1
    28    10    11    2
    29    25    20   ar
    30    10     1   am
    31     9     3   ar
    32    18    12   ar
    33    29    30    1
    34    29    31    1
