@<TRIPOS>MOLECULE
*****
 28 31 0 0 0
SMALL
GASTEIGER

@<TRIPOS>ATOM
      1 N          59.7432   88.4603   11.9488 N.3     1  UNL1       -0.3205
      2 C          61.0808   89.0456   11.6048 C.3     1  UNL1        0.0766
      3 C          61.7936   90.1237   12.3661 C.3     1  UNL1        0.1079
      4 N          63.0938   90.3998   11.6709 N.pl3   1  UNL1       -0.2914
      5 C          63.1845   89.4924   10.4799 C.3     1  UNL1        0.0980
      6 C          61.9404   88.6554   10.4391 C.3     1  UNL1        0.0602
      7 H          59.3819   88.9094   12.7903 H       1  UNL1        0.1189
      8 H          59.8426   87.4587   12.1140 H       1  UNL1        0.1189
      9 C          61.6134   87.6116    9.4127 C.ar    1  UNL1        0.0103
     10 C          62.5515   86.4634    9.1854 C.ar    1  UNL1        0.0300
     11 C          62.2244   85.4195    8.1590 C.ar    1  UNL1        0.1672
     12 F          63.1625   84.2714    7.9317 F       1  UNL1       -0.2018
     13 C          60.9593   85.5239    7.3601 C.ar    1  UNL1        0.1696
     14 F          60.6322   84.4800    6.3337 F       1  UNL1       -0.2017
     15 C          60.0211   86.6721    7.5874 C.ar    1  UNL1        0.0612
     16 C          60.3482   87.7158    8.6137 C.ar    1  UNL1        0.1386
     17 F          59.4100   88.8641    8.8411 F       1  UNL1       -0.2044
     18 C          64.1226   91.4067   12.0926 C.ar    1  UNL1        0.1350
     19 C          64.7112   92.3460   11.0820 C.ar    1  UNL1        0.0535
     20 C          65.7399   93.3528   11.5038 C.ar    1  UNL1        0.0863
     21 N          66.1802   93.4203   12.9361 N.ar    1  UNL1       -0.2239
     22 C          65.5916   92.4811   13.9467 C.ar    1  UNL1        0.2000
     23 N          64.5628   91.4743   13.5249 N.ar    1  UNL1       -0.2090
     24 C          66.3285   94.2921   10.4931 C.ar    1  UNL1        0.0248
     25 C          67.3159   93.9305    9.4234 C.ar    1  UNL1        0.0090
     26 C          67.6307   95.1729    8.6440 C.ar    1  UNL1        0.0355
     27 S          66.8379   96.3024    9.2321 S.2     1  UNL1       -0.0859
     28 C          66.0331   95.7580   10.3749 C.ar    1  UNL1        0.0369
@<TRIPOS>BOND
     1     1     2    1
     2     2     3    1
     3     3     4    1
     4     4    18    1
     5    18    19   ar
     6    19    20   ar
     7    20    24    1
     8    24    25   ar
     9    25    26   ar
    10    26    27   ar
    11    27    28   ar
    12    20    21   ar
    13    21    22   ar
    14    22    23   ar
    15     4     5    1
    16     5     6    1
    17     6     9    1
    18     9    10   ar
    19    10    11   ar
    20    11    12    1
    21    11    13   ar
    22    13    14    1
    23    13    15   ar
    24    15    16   ar
    25    16    17    1
    26     6     2    1
    27    16     9   ar
    28    23    18   ar
    29    28    24   ar
    30     1     7    1
    31     1     8    1
@<TRIPOS>MOLECULE
*****
 28 31 0 0 0
SMALL
GASTEIGER

@<TRIPOS>ATOM
      1 N          61.2643   85.9641    9.8460 N.3     1  UNL1       -0.3205
      2 C          62.0658   86.4798   11.0044 C.3     1  UNL1        0.0766
      3 C          62.3170   87.9222   11.3302 C.3     1  UNL1        0.1079
      4 N          63.1633   87.9774   12.5675 N.pl3   1  UNL1       -0.2914
      5 C          63.4351   86.5690   13.0063 C.3     1  UNL1        0.0980
      6 C          62.7568   85.6434   12.0403 C.3     1  UNL1        0.0602
      7 H          60.9084   86.7502    9.3022 H       1  UNL1        0.1189
      8 H          60.4822   85.4094   10.1939 H       1  UNL1        0.1189
      9 C          62.7677   84.1446   12.0997 C.ar    1  UNL1        0.0103
     10 C          62.2151   83.4377   13.3017 C.ar    1  UNL1        0.0300
     11 C          62.2260   81.9388   13.3611 C.ar    1  UNL1        0.1672
     12 F          61.6735   81.2319   14.5631 F       1  UNL1       -0.2018
     13 C          62.7894   81.1471   12.2185 C.ar    1  UNL1        0.1696
     14 F          62.8003   79.6483   12.2779 F       1  UNL1       -0.2017
     15 C          63.3420   81.8541   11.0164 C.ar    1  UNL1        0.0612
     16 C          63.3311   83.3528   10.9571 C.ar    1  UNL1        0.1386
     17 F          63.8837   84.0598    9.7550 F       1  UNL1       -0.2044
     18 C          63.6519   89.2224   13.2467 C.ar    1  UNL1        0.1350
     19 C          64.2577   90.3301   12.4368 C.ar    1  UNL1        0.0535
     20 C          64.7463   91.5750   13.1160 C.ar    1  UNL1        0.0863
     21 N          64.6291   91.7123   14.6051 N.ar    1  UNL1       -0.2239
     22 C          64.0233   90.6046   15.4150 C.ar    1  UNL1        0.2000
     23 N          63.5347   89.3597   14.7358 N.ar    1  UNL1       -0.2090
     24 C          65.3522   92.6828   12.3060 C.ar    1  UNL1        0.0248
     25 C          66.1328   93.8444   12.8457 C.ar    1  UNL1        0.0090
     26 C          66.5468   94.7029   11.6875 C.ar    1  UNL1        0.0355
     27 S          66.0221   94.0718   10.4319 S.2     1  UNL1       -0.0859
     28 C          65.2838   92.8234   10.8142 C.ar    1  UNL1        0.0369
@<TRIPOS>BOND
     1     1     2    1
     2     2     3    1
     3     3     4    1
     4     4    18    1
     5    18    19   ar
     6    19    20   ar
     7    20    24    1
     8    24    25   ar
     9    25    26   ar
    10    26    27   ar
    11    27    28   ar
    12    20    21   ar
    13    21    22   ar
    14    22    23   ar
    15     4     5    1
    16     5     6    1
    17     6     9    1
    18     9    10   ar
    19    10    11   ar
    20    11    12    1
    21    11    13   ar
    22    13    14    1
    23    13    15   ar
    24    15    16   ar
    25    16    17    1
    26     6     2    1
    27    16     9   ar
    28    23    18   ar
    29    28    24   ar
    30     1     7    1
    31     1     8    1
@<TRIPOS>MOLECULE
*****
 28 31 0 0 0
SMALL
GASTEIGER

@<TRIPOS>ATOM
      1 N          65.6319   93.6109   11.1018 N.3     1  UNL1       -0.3205
      2 C          64.8962   92.3862   11.5589 C.3     1  UNL1        0.0766
      3 C          63.7499   91.7297   10.8482 C.3     1  UNL1        0.1079
      4 N          63.3229   90.5407   11.6569 N.pl3   1  UNL1       -0.2914
      5 C          64.2051   90.4625   12.8675 C.3     1  UNL1        0.0980
      6 C          65.1775   91.6030   12.8069 C.3     1  UNL1        0.0602
      7 H          65.2330   93.9387   10.2221 H       1  UNL1        0.1189
      8 H          66.6170   93.3845   10.9650 H       1  UNL1        0.1189
      9 C          66.2439   91.9071   13.8170 C.ar    1  UNL1        0.0103
     10 C          67.6814   91.9721   13.3935 C.ar    1  UNL1        0.0300
     11 C          68.7479   92.2762   14.4036 C.ar    1  UNL1        0.1672
     12 F          70.1853   92.3413   13.9801 F       1  UNL1       -0.2018
     13 C          68.3768   92.5151   15.8371 C.ar    1  UNL1        0.1696
     14 F          69.4432   92.8191   16.8472 F       1  UNL1       -0.2017
     15 C          66.9392   92.4500   16.2607 C.ar    1  UNL1        0.0612
     16 C          65.8729   92.1460   15.2506 C.ar    1  UNL1        0.1386
     17 F          64.4353   92.0809   15.6741 F       1  UNL1       -0.2044
     18 C          62.2090   89.5959   11.3151 C.ar    1  UNL1        0.1350
     19 C          62.4070   88.5564   10.2520 C.ar    1  UNL1        0.0535
     20 C          61.2932   87.6116    9.9102 C.ar    1  UNL1        0.0863
     21 N          59.9814   87.7064   10.6315 N.ar    1  UNL1       -0.2239
     22 C          59.7834   88.7460   11.6945 C.ar    1  UNL1        0.2000
     23 N          60.8972   89.6907   12.0363 N.ar    1  UNL1       -0.2090
     24 C          61.4912   86.5720    8.8472 C.ar    1  UNL1        0.0248
     25 C          62.7548   85.8069    8.5865 C.ar    1  UNL1        0.0090
     26 C          62.5049   84.8771    7.4364 C.ar    1  UNL1        0.0355
     27 S          61.0867   85.0675    6.9861 S.2     1  UNL1       -0.0859
     28 C          60.4603   86.1150    7.8581 C.ar    1  UNL1        0.0369
@<TRIPOS>BOND
     1     1     2    1
     2     2     3    1
     3     3     4    1
     4     4    18    1
     5    18    19   ar
     6    19    20   ar
     7    20    24    1
     8    24    25   ar
     9    25    26   ar
    10    26    27   ar
    11    27    28   ar
    12    20    21   ar
    13    21    22   ar
    14    22    23   ar
    15     4     5    1
    16     5     6    1
    17     6     9    1
    18     9    10   ar
    19    10    11   ar
    20    11    12    1
    21    11    13   ar
    22    13    14    1
    23    13    15   ar
    24    15    16   ar
    25    16    17    1
    26     6     2    1
    27    16     9   ar
    28    23    18   ar
    29    28    24   ar
    30     1     7    1
    31     1     8    1
@<TRIPOS>MOLECULE
*****
 28 31 0 0 0
SMALL
GASTEIGER

@<TRIPOS>ATOM
      1 N          59.9980   89.3320   12.6924 N.3     1  UNL1       -0.3205
      2 C          61.3282   89.7729   12.1577 C.3     1  UNL1        0.0766
      3 C          62.2606   90.7502   12.8101 C.3     1  UNL1        0.1079
      4 N          63.4684   90.8953   11.9323 N.pl3   1  UNL1       -0.2914
      5 C          63.2824   90.0078   10.7375 C.3     1  UNL1        0.0980
      6 C          61.9597   89.3141   10.8768 C.3     1  UNL1        0.0602
      7 H          59.8157   89.8011   13.5796 H       1  UNL1        0.1189
      8 H          60.0075   88.3224   12.8373 H       1  UNL1        0.1189
      9 C          61.3717   88.3336    9.9057 C.ar    1  UNL1        0.0103
     10 C          60.4019   88.8019    8.8617 C.ar    1  UNL1        0.0300
     11 C          59.8139   87.8215    7.8905 C.ar    1  UNL1        0.1672
     12 F          58.8440   88.2898    6.8465 F       1  UNL1       -0.2018
     13 C          60.1958   86.3729    7.9635 C.ar    1  UNL1        0.1696
     14 F          59.6078   85.3924    6.9923 F       1  UNL1       -0.2017
     15 C          61.1658   85.9045    9.0075 C.ar    1  UNL1        0.0612
     16 C          61.7537   86.8849    9.9786 C.ar    1  UNL1        0.1386
     17 F          62.7236   86.4166   11.0227 F       1  UNL1       -0.2044
     18 C          64.6539   91.7738   12.2021 C.ar    1  UNL1        0.1350
     19 C          65.0665   92.8068   11.1957 C.ar    1  UNL1        0.0535
     20 C          66.2520   93.6852   11.4655 C.ar    1  UNL1        0.0863
     21 N          67.0250   93.5307   12.7417 N.ar    1  UNL1       -0.2239
     22 C          66.6125   92.4978   13.7481 C.ar    1  UNL1        0.2000
     23 N          65.4269   91.6194   13.4783 N.ar    1  UNL1       -0.2090
     24 C          66.6646   94.7182   10.4591 C.ar    1  UNL1        0.0248
     25 C          66.6137   96.2051   10.6502 C.ar    1  UNL1        0.0090
     26 C          67.1182   96.8514    9.3942 C.ar    1  UNL1        0.0355
     27 S          67.4809   95.7640    8.4267 S.2     1  UNL1       -0.0859
     28 C          67.2005   94.4456    9.0849 C.ar    1  UNL1        0.0369
@<TRIPOS>BOND
     1     1     2    1
     2     2     3    1
     3     3     4    1
     4     4    18    1
     5    18    19   ar
     6    19    20   ar
     7    20    24    1
     8    24    25   ar
     9    25    26   ar
    10    26    27   ar
    11    27    28   ar
    12    20    21   ar
    13    21    22   ar
    14    22    23   ar
    15     4     5    1
    16     5     6    1
    17     6     9    1
    18     9    10   ar
    19    10    11   ar
    20    11    12    1
    21    11    13   ar
    22    13    14    1
    23    13    15   ar
    24    15    16   ar
    25    16    17    1
    26     6     2    1
    27    16     9   ar
    28    23    18   ar
    29    28    24   ar
    30     1     7    1
    31     1     8    1
@<TRIPOS>MOLECULE
*****
 28 31 0 0 0
SMALL
GASTEIGER

@<TRIPOS>ATOM
      1 N          60.1058   88.9127   12.1337 N.3     1  UNL1       -0.3205
      2 C          61.3780   89.4883   11.5858 C.3     1  UNL1        0.0766
      3 C          62.1690   90.6113   12.1883 C.3     1  UNL1        0.1079
      4 N          63.3624   90.8590   11.3140 N.pl3   1  UNL1       -0.2914
      5 C          63.3090   89.8891   10.1710 C.3     1  UNL1        0.0980
      6 C          62.0826   89.0419   10.3390 C.3     1  UNL1        0.0602
      7 H          59.8517   89.4040   12.9907 H       1  UNL1        0.1189
      8 H          60.2406   87.9222   12.3369 H       1  UNL1        0.1189
      9 C          61.6386   87.9416    9.4213 C.ar    1  UNL1        0.0103
     10 C          62.5190   86.7471    9.2017 C.ar    1  UNL1        0.0300
     11 C          62.0750   85.6467    8.2840 C.ar    1  UNL1        0.1672
     12 F          62.9554   84.4523    8.0644 F       1  UNL1       -0.2018
     13 C          60.7508   85.7409    7.5859 C.ar    1  UNL1        0.1696
     14 F          60.3069   84.6405    6.6682 F       1  UNL1       -0.2017
     15 C          59.8704   86.9354    7.8055 C.ar    1  UNL1        0.0612
     16 C          60.3144   88.0357    8.7231 C.ar    1  UNL1        0.1386
     17 F          59.4340   89.2302    8.9427 F       1  UNL1       -0.2044
     18 C          64.4230   91.8949   11.5425 C.ar    1  UNL1        0.1350
     19 C          65.2634   91.8466   12.7841 C.ar    1  UNL1        0.0535
     20 C          66.3239   92.8825   13.0125 C.ar    1  UNL1        0.0863
     21 N          66.5442   93.9665   11.9995 N.ar    1  UNL1       -0.2239
     22 C          65.7039   94.0148   10.7579 C.ar    1  UNL1        0.2000
     23 N          64.6433   92.9789   10.5294 N.ar    1  UNL1       -0.2090
     24 C          67.1643   92.8342   14.2542 C.ar    1  UNL1        0.0248
     25 C          67.6242   91.5931   14.9599 C.ar    1  UNL1        0.0090
     26 C          68.4364   92.0106   16.1499 C.ar    1  UNL1        0.0355
     27 S          68.4785   93.5097   16.1796 S.2     1  UNL1       -0.0859
     28 C          67.6923   94.0188   15.0079 C.ar    1  UNL1        0.0369
@<TRIPOS>BOND
     1     1     2    1
     2     2     3    1
     3     3     4    1
     4     4    18    1
     5    18    19   ar
     6    19    20   ar
     7    20    24    1
     8    24    25   ar
     9    25    26   ar
    10    26    27   ar
    11    27    28   ar
    12    20    21   ar
    13    21    22   ar
    14    22    23   ar
    15     4     5    1
    16     5     6    1
    17     6     9    1
    18     9    10   ar
    19    10    11   ar
    20    11    12    1
    21    11    13   ar
    22    13    14    1
    23    13    15   ar
    24    15    16   ar
    25    16    17    1
    26     6     2    1
    27    16     9   ar
    28    23    18   ar
    29    28    24   ar
    30     1     7    1
    31     1     8    1
@<TRIPOS>MOLECULE
*****
 28 31 0 0 0
SMALL
GASTEIGER

@<TRIPOS>ATOM
      1 N          60.9936   86.5693   10.3129 N.3     1  UNL1       -0.3205
      2 C          61.9876   87.0838   11.3116 C.3     1  UNL1        0.0766
      3 C          62.3168   88.5250   11.5658 C.3     1  UNL1        0.1079
      4 N          63.3595   88.5793   12.6427 N.pl3   1  UNL1       -0.2914
      5 C          63.6748   87.1717   13.0541 C.3     1  UNL1        0.0980
      6 C          62.8269   86.2474   12.2315 C.3     1  UNL1        0.0602
      7 H          60.5662   87.3552    9.8228 H       1  UNL1        0.1189
      8 H          60.2707   86.0363   10.7963 H       1  UNL1        0.1189
      9 C          62.8195   84.7497   12.3141 C.ar    1  UNL1        0.0103
     10 C          63.1999   83.9306   11.1165 C.ar    1  UNL1        0.0300
     11 C          63.1925   82.4329   11.1991 C.ar    1  UNL1        0.1672
     12 F          63.5728   81.6138   10.0015 F       1  UNL1       -0.2018
     13 C          62.8048   81.7543   12.4794 C.ar    1  UNL1        0.1696
     14 F          62.7975   80.2566   12.5621 F       1  UNL1       -0.2017
     15 C          62.4245   82.5735   13.6771 C.ar    1  UNL1        0.0612
     16 C          62.4319   84.0711   13.5944 C.ar    1  UNL1        0.1386
     17 F          62.0515   84.8903   14.7921 F       1  UNL1       -0.2044
     18 C          63.9784   89.8229   13.2089 C.ar    1  UNL1        0.1350
     19 C          64.5089   90.8823   12.2890 C.ar    1  UNL1        0.0535
     20 C          65.1278   92.1259   12.8551 C.ar    1  UNL1        0.0863
     21 N          65.2160   92.3101   14.3412 N.ar    1  UNL1       -0.2239
     22 C          64.6855   91.2507   15.2610 C.ar    1  UNL1        0.2000
     23 N          64.0667   90.0071   14.6949 N.ar    1  UNL1       -0.2090
     24 C          65.6583   93.1853   11.9352 C.ar    1  UNL1        0.0248
     25 C          65.8203   93.0622   10.4491 C.ar    1  UNL1        0.0090
     26 C          66.3822   94.3546    9.9354 C.ar    1  UNL1        0.0355
     27 S          66.5675   95.2766   11.1041 S.2     1  UNL1       -0.0859
     28 C          66.1201   94.5539   12.3400 C.ar    1  UNL1        0.0369
@<TRIPOS>BOND
     1     1     2    1
     2     2     3    1
     3     3     4    1
     4     4    18    1
     5    18    19   ar
     6    19    20   ar
     7    20    24    1
     8    24    25   ar
     9    25    26   ar
    10    26    27   ar
    11    27    28   ar
    12    20    21   ar
    13    21    22   ar
    14    22    23   ar
    15     4     5    1
    16     5     6    1
    17     6     9    1
    18     9    10   ar
    19    10    11   ar
    20    11    12    1
    21    11    13   ar
    22    13    14    1
    23    13    15   ar
    24    15    16   ar
    25    16    17    1
    26     6     2    1
    27    16     9   ar
    28    23    18   ar
    29    28    24   ar
    30     1     7    1
    31     1     8    1
@<TRIPOS>MOLECULE
*****
 28 31 0 0 0
SMALL
GASTEIGER

@<TRIPOS>ATOM
      1 N          65.2910   93.5972   11.4385 N.3     1  UNL1       -0.3205
      2 C          64.8014   92.2601   11.9099 C.3     1  UNL1        0.0766
      3 C          63.7114   91.4469   11.2769 C.3     1  UNL1        0.1079
      4 N          63.5522   90.1855   12.0729 N.pl3   1  UNL1       -0.2914
      5 C          64.5438   90.2191   13.1979 C.3     1  UNL1        0.0980
      6 C          65.3158   91.5012   13.0972 C.3     1  UNL1        0.0602
      7 H          64.7662   93.8788   10.6104 H       1  UNL1        0.1189
      8 H          66.2825   93.5342   11.2075 H       1  UNL1        0.1189
      9 C          66.4102   91.9463   14.0214 C.ar    1  UNL1        0.0103
     10 C          67.8319   91.9706   13.5436 C.ar    1  UNL1        0.0300
     11 C          68.9263   92.4158   14.4679 C.ar    1  UNL1        0.1672
     12 F          70.3479   92.4400   13.9900 F       1  UNL1       -0.2018
     13 C          68.5989   92.8366   15.8699 C.ar    1  UNL1        0.1696
     14 F          69.6933   93.2817   16.7941 F       1  UNL1       -0.2017
     15 C          67.1772   92.8123   16.3477 C.ar    1  UNL1        0.0612
     16 C          66.0830   92.3672   15.4235 C.ar    1  UNL1        0.1386
     17 F          64.6612   92.3429   15.9013 F       1  UNL1       -0.2044
     18 C          62.5732   89.0840   11.7931 C.ar    1  UNL1        0.1350
     19 C          62.9891   87.6519   11.9551 C.ar    1  UNL1        0.0535
     20 C          62.0101   86.5505   11.6752 C.ar    1  UNL1        0.0863
     21 N          60.6153   86.8811   11.2333 N.ar    1  UNL1       -0.2239
     22 C          60.1994   88.3131   11.0714 C.ar    1  UNL1        0.2000
     23 N          61.1784   89.4146   11.3512 N.ar    1  UNL1       -0.2090
     24 C          62.4259   85.1184   11.8372 C.ar    1  UNL1        0.0248
     25 C          62.9034   84.2098   10.7433 C.ar    1  UNL1        0.0090
     26 C          63.2098   82.8733   11.3516 C.ar    1  UNL1        0.0355
     27 S          62.9217   82.9559   12.8214 S.2     1  UNL1       -0.0859
     28 C          62.4373   84.3434   13.1215 C.ar    1  UNL1        0.0369
@<TRIPOS>BOND
     1     1     2    1
     2     2     3    1
     3     3     4    1
     4     4    18    1
     5    18    19   ar
     6    19    20   ar
     7    20    24    1
     8    24    25   ar
     9    25    26   ar
    10    26    27   ar
    11    27    28   ar
    12    20    21   ar
    13    21    22   ar
    14    22    23   ar
    15     4     5    1
    16     5     6    1
    17     6     9    1
    18     9    10   ar
    19    10    11   ar
    20    11    12    1
    21    11    13   ar
    22    13    14    1
    23    13    15   ar
    24    15    16   ar
    25    16    17    1
    26     6     2    1
    27    16     9   ar
    28    23    18   ar
    29    28    24   ar
    30     1     7    1
    31     1     8    1
@<TRIPOS>MOLECULE
*****
 28 31 0 0 0
SMALL
GASTEIGER

@<TRIPOS>ATOM
      1 N          60.1629   89.3599   12.6209 N.3     1  UNL1       -0.3205
      2 C          61.4168   89.8518   11.9607 C.3     1  UNL1        0.0766
      3 C          62.3600   90.8785   12.5139 C.3     1  UNL1        0.1079
      4 N          63.4738   91.0646   11.5264 N.pl3   1  UNL1       -0.2914
      5 C          63.2188   90.1529   10.3630 C.3     1  UNL1        0.0980
      6 C          61.9475   89.4033   10.6313 C.3     1  UNL1        0.0602
      7 H          60.0422   89.8330   13.5165 H       1  UNL1        0.1189
      8 H          60.2316   88.3539   12.7743 H       1  UNL1        0.1189
      9 C          61.3176   88.3841    9.7288 C.ar    1  UNL1        0.0103
     10 C          60.3166   88.8126    8.6971 C.ar    1  UNL1        0.0300
     11 C          59.6866   87.7934    7.7946 C.ar    1  UNL1        0.1672
     12 F          58.6856   88.2219    6.7630 F       1  UNL1       -0.2018
     13 C          60.0578   86.3459    7.9238 C.ar    1  UNL1        0.1696
     14 F          59.4278   85.3268    7.0212 F       1  UNL1       -0.2017
     15 C          61.0589   85.9174    8.9555 C.ar    1  UNL1        0.0612
     16 C          61.6887   86.9365    9.8579 C.ar    1  UNL1        0.1386
     17 F          62.6899   86.5081   10.8896 F       1  UNL1       -0.2044
     18 C          64.6380   91.9985   11.6762 C.ar    1  UNL1        0.1350
     19 C          65.4441   91.9953   12.9411 C.ar    1  UNL1        0.0535
     20 C          66.6083   92.9292   13.0909 C.ar    1  UNL1        0.0863
     21 N          66.9664   93.8662   11.9757 N.ar    1  UNL1       -0.2239
     22 C          66.1603   93.8694   10.7107 C.ar    1  UNL1        0.2000
     23 N          64.9961   92.9356   10.5610 N.ar    1  UNL1       -0.2090
     24 C          67.4145   92.9261   14.3559 C.ar    1  UNL1        0.0248
     25 C          67.9618   94.1347   15.0556 C.ar    1  UNL1        0.0090
     26 C          68.7004   93.6693   16.2754 C.ar    1  UNL1        0.0355
     27 S          68.6097   92.1730   16.3295 S.2     1  UNL1       -0.0859
     28 C          67.8149   91.7137   15.1432 C.ar    1  UNL1        0.0369
@<TRIPOS>BOND
     1     1     2    1
     2     2     3    1
     3     3     4    1
     4     4    18    1
     5    18    19   ar
     6    19    20   ar
     7    20    24    1
     8    24    25   ar
     9    25    26   ar
    10    26    27   ar
    11    27    28   ar
    12    20    21   ar
    13    21    22   ar
    14    22    23   ar
    15     4     5    1
    16     5     6    1
    17     6     9    1
    18     9    10   ar
    19    10    11   ar
    20    11    12    1
    21    11    13   ar
    22    13    14    1
    23    13    15   ar
    24    15    16   ar
    25    16    17    1
    26     6     2    1
    27    16     9   ar
    28    23    18   ar
    29    28    24   ar
    30     1     7    1
    31     1     8    1
@<TRIPOS>MOLECULE
*****
 28 31 0 0 0
SMALL
GASTEIGER

@<TRIPOS>ATOM
      1 N          63.0034   91.8303    9.4081 N.3     1  UNL1       -0.3205
      2 C          63.6044   91.4680   10.7339 C.3     1  UNL1        0.0766
      3 C          63.0442   90.4824   11.7160 C.3     1  UNL1        0.1079
      4 N          63.9646   90.4329   12.8994 N.pl3   1  UNL1       -0.2914
      5 C          65.0937   91.3880   12.6486 C.3     1  UNL1        0.0980
      6 C          64.8711   92.0277   11.3103 C.3     1  UNL1        0.0602
      7 H          62.1433   91.3001    9.2684 H       1  UNL1        0.1189
      8 H          63.6642   91.6087    8.6634 H       1  UNL1        0.1189
      9 C          65.7592   93.0481   10.6621 C.ar    1  UNL1        0.0103
     10 C          65.2550   94.4413   10.4286 C.ar    1  UNL1        0.0300
     11 C          66.1431   95.4617    9.7804 C.ar    1  UNL1        0.1672
     12 F          65.6388   96.8549    9.5470 F       1  UNL1       -0.2018
     13 C          67.5355   95.0887    9.3657 C.ar    1  UNL1        0.1696
     14 F          68.4236   96.1090    8.7175 F       1  UNL1       -0.2017
     15 C          68.0398   93.6953    9.5991 C.ar    1  UNL1        0.0612
     16 C          67.1517   92.6752   10.2473 C.ar    1  UNL1        0.1386
     17 F          67.6560   91.2818   10.4807 F       1  UNL1       -0.2044
     18 C          63.7871   89.5784   14.1194 C.ar    1  UNL1        0.1350
     19 C          63.9351   88.0891   14.0199 C.ar    1  UNL1        0.0535
     20 C          63.7576   87.2346   15.2398 C.ar    1  UNL1        0.0863
     21 N          63.4320   87.8695   16.5593 N.ar    1  UNL1       -0.2239
     22 C          63.2840   89.3588   16.6588 C.ar    1  UNL1        0.2000
     23 N          63.4616   90.2133   15.4389 N.ar    1  UNL1       -0.2090
     24 C          63.9056   85.7452   15.1404 C.ar    1  UNL1        0.0248
     25 C          65.0641   85.0130   14.5307 C.ar    1  UNL1        0.0090
     26 C          64.7956   83.5418   14.6467 C.ar    1  UNL1        0.0355
     27 S          63.4710   83.3647   15.3281 S.2     1  UNL1       -0.0859
     28 C          62.9210   84.7265   15.6332 C.ar    1  UNL1        0.0369
@<TRIPOS>BOND
     1     1     2    1
     2     2     3    1
     3     3     4    1
     4     4    18    1
     5    18    19   ar
     6    19    20   ar
     7    20    24    1
     8    24    25   ar
     9    25    26   ar
    10    26    27   ar
    11    27    28   ar
    12    20    21   ar
    13    21    22   ar
    14    22    23   ar
    15     4     5    1
    16     5     6    1
    17     6     9    1
    18     9    10   ar
    19    10    11   ar
    20    11    12    1
    21    11    13   ar
    22    13    14    1
    23    13    15   ar
    24    15    16   ar
    25    16    17    1
    26     6     2    1
    27    16     9   ar
    28    23    18   ar
    29    28    24   ar
    30     1     7    1
    31     1     8    1
