@<TRIPOS>MOLECULE
*****
 39 42 0 0 0
SMALL
GASTEIGER

@<TRIPOS>ATOM
      1 C          64.1798   89.3555   13.1910 C.ar    1  UNL1        0.0053
      2 C          64.4776   89.1436   14.6457 C.ar    1  UNL1        0.0033
      3 C          64.2500   87.7987   15.2697 C.ar    1  UNL1        0.0382
      4 C          63.7247   86.6656   14.4388 C.ar    1  UNL1        0.1529
      5 C          63.4270   86.8775   12.9841 C.ar    1  UNL1        0.0881
      6 C          63.6545   88.2225   12.3601 C.ar    1  UNL1        0.0181
      7 N          62.9017   85.7445   12.1532 N.am    1  UNL1       -0.2528
      8 C          62.6741   84.3996   12.7772 C.2     1  UNL1        0.2697
      9 O          62.1488   83.2665   11.9463 O.2     1  UNL1       -0.2704
     10 C          62.9719   84.1876   14.2320 C.3     1  UNL1        0.2199
     11 C          63.1031   83.4992   15.5582 C.3     1  UNL1        0.0579
     12 O          63.4972   85.3207   15.0628 O.3     1  UNL1       -0.4686
     13 C          65.3005   91.6989   13.2418 C.ar    1  UNL1        0.0645
     14 N          65.5281   93.0438   12.6178 N.ar    1  UNL1       -0.2183
     15 C          64.8624   93.3904   11.3190 C.ar    1  UNL1        0.2145
     16 N          65.0900   94.7353   10.6951 N.pl3   1  UNL1       -0.3274
     17 N          63.9692   92.3920   10.6442 N.ar    1  UNL1       -0.1995
     18 C          63.7417   91.0470   11.2682 C.ar    1  UNL1        0.1293
     19 N          62.8485   90.0486   10.5934 N.pl3   1  UNL1       -0.3425
     20 C          64.4073   90.7005   12.5669 C.ar    1  UNL1        0.0449
     21 H          65.6762   95.3906   11.1380 H       1  UNL1        0.1452
     22 H          64.6531   94.9628    9.8426 H       1  UNL1        0.1452
     23 H          62.4116   90.2760    9.7409 H       1  UNL1        0.1437
     24 H          62.6992   89.1658   11.0029 H       1  UNL1        0.1437
     25 C          67.4304   91.6193   14.7276 C.3     1  UNL1        0.0067
     26 C          65.9662   91.3523   14.5406 C.3     1  UNL1        0.0460
     27 C          62.4922   82.8155   13.8618 C.ar    1  UNL1        0.0264
     28 C          63.2596   81.9956   12.8674 C.ar    1  UNL1        0.0293
     29 C          62.7798   80.6234   12.4972 C.ar    1  UNL1        0.1422
     30 F          63.5474   79.8035   11.5028 F       1  UNL1       -0.2041
     31 C          61.5327   80.0712   13.1212 C.ar    1  UNL1        0.0592
     32 C          60.7652   80.8912   14.1155 C.ar    1  UNL1        0.1422
     33 F          59.5180   80.3389   14.7396 F       1  UNL1       -0.2041
     34 C          61.2449   82.2633   14.4858 C.ar    1  UNL1        0.0293
     35 C          62.6039   85.9564   10.6985 C.3     1  UNL1        0.1010
     36 C          61.1852   86.1183   10.2391 C.3     1  UNL1        0.0539
     37 C          60.5113   87.4545   10.3422 C.3     1  UNL1        0.1440
     38 O          60.3212   88.0970   11.6842 O.3     1  UNL1       -0.3510
     39 C          59.6547   89.4369   11.7865 C.3     1  UNL1        0.1741
@<TRIPOS>BOND
     1    25    26    1
     2    26    13    1
     3    13    14   ar
     4    14    15   ar
     5    15    16    1
     6    15    17   ar
     7    17    18   ar
     8    18    19    1
     9    18    20   ar
    10    20     1    1
    11     1     2   ar
    12     2     3   ar
    13     3     4   ar
    14     4     5   ar
    15     5     6   ar
    16     5     7    1
    17     7    35    1
    18    35    36    1
    19    36    37    1
    20    37    38    1
    21    38    39    1
    22     7     8   am
    23     8     9    2
    24     8    10    1
    25    10    11    1
    26    10    27    1
    27    27    28   ar
    28    28    29   ar
    29    29    30    1
    30    29    31   ar
    31    31    32   ar
    32    32    33    1
    33    32    34   ar
    34    10    12    1
    35    20    13   ar
    36     6     1   ar
    37    34    27   ar
    38    12     4    1
    39    16    21    1
    40    16    22    1
    41    19    23    1
    42    19    24    1
@<TRIPOS>MOLECULE
*****
 39 42 0 0 0
SMALL
GASTEIGER

@<TRIPOS>ATOM
      1 C          65.3636   90.6895   14.0967 C.ar    1  UNL1        0.0053
      2 C          65.0822   89.4052   14.8187 C.ar    1  UNL1        0.0033
      3 C          64.1644   88.3876   14.2089 C.ar    1  UNL1        0.0382
      4 C          63.5278   88.6543   12.8771 C.ar    1  UNL1        0.1529
      5 C          63.8091   89.9386   12.1551 C.ar    1  UNL1        0.0881
      6 C          64.7270   90.9562   12.7649 C.ar    1  UNL1        0.0181
      7 N          63.1726   90.2053   10.8234 N.am    1  UNL1       -0.2528
      8 C          62.2547   89.1876   10.2136 C.2     1  UNL1        0.2697
      9 O          61.6181   89.4543    8.8818 O.2     1  UNL1       -0.2704
     10 C          61.9734   87.9032   10.9356 C.3     1  UNL1        0.2199
     11 C          61.4021   86.5480   11.2306 C.3     1  UNL1        0.0579
     12 O          62.6099   87.6365   12.2674 O.3     1  UNL1       -0.4686
     13 C          67.5983   92.0141   14.0571 C.ar    1  UNL1        0.0645
     14 N          68.5162   93.0318   14.6668 N.ar    1  UNL1       -0.2183
     15 C          68.1173   93.7426   15.9260 C.ar    1  UNL1        0.2145
     16 N          69.0352   94.7603   16.5357 N.pl3   1  UNL1       -0.3274
     17 N          66.8004   93.4357   16.5755 N.ar    1  UNL1       -0.1995
     18 C          65.8825   92.4180   15.9657 C.ar    1  UNL1        0.1293
     19 N          64.5657   92.1112   16.6152 N.pl3   1  UNL1       -0.3425
     20 C          66.2815   91.7072   14.7065 C.ar    1  UNL1        0.0449
     21 H          69.8994   94.9617   16.1095 H       1  UNL1        0.1452
     22 H          68.7733   95.2268   17.3622 H       1  UNL1        0.1452
     23 H          64.3039   92.5777   17.4416 H       1  UNL1        0.1437
     24 H          63.9632   91.4432   16.2150 H       1  UNL1        0.1437
     25 C          68.2420   92.0845   11.5410 C.3     1  UNL1        0.0067
     26 C          67.9972   91.3032   12.7978 C.3     1  UNL1        0.0460
     27 C          61.1384   87.6993    9.7063 C.ar    1  UNL1        0.0264
     28 C          61.2083   86.4005    8.9591 C.ar    1  UNL1        0.0293
     29 C          60.3733   86.1966    7.7298 C.ar    1  UNL1        0.1422
     30 F          60.4433   84.8977    6.9826 F       1  UNL1       -0.2041
     31 C          59.4685   87.2913    7.2476 C.ar    1  UNL1        0.0592
     32 C          59.3986   88.5901    7.9948 C.ar    1  UNL1        0.1422
     33 F          58.4936   89.6850    7.5126 F       1  UNL1       -0.2041
     34 C          60.2335   88.7941    9.2241 C.ar    1  UNL1        0.0293
     35 C          63.4539   91.4896   10.1014 C.3     1  UNL1        0.1010
     36 C          64.8357   92.0728   10.1190 C.3     1  UNL1        0.0539
     37 C          65.0407   93.5040   10.5186 C.3     1  UNL1        0.1440
     38 O          66.1814   94.2881    9.9405 O.3     1  UNL1       -0.3510
     39 C          66.6361   95.5527   10.6068 C.3     1  UNL1        0.1741
@<TRIPOS>BOND
     1    25    26    1
     2    26    13    1
     3    13    14   ar
     4    14    15   ar
     5    15    16    1
     6    15    17   ar
     7    17    18   ar
     8    18    19    1
     9    18    20   ar
    10    20     1    1
    11     1     2   ar
    12     2     3   ar
    13     3     4   ar
    14     4     5   ar
    15     5     6   ar
    16     5     7    1
    17     7    35    1
    18    35    36    1
    19    36    37    1
    20    37    38    1
    21    38    39    1
    22     7     8   am
    23     8     9    2
    24     8    10    1
    25    10    11    1
    26    10    27    1
    27    27    28   ar
    28    28    29   ar
    29    29    30    1
    30    29    31   ar
    31    31    32   ar
    32    32    33    1
    33    32    34   ar
    34    10    12    1
    35    20    13   ar
    36     6     1   ar
    37    34    27   ar
    38    12     4    1
    39    16    21    1
    40    16    22    1
    41    19    23    1
    42    19    24    1
@<TRIPOS>MOLECULE
*****
 39 42 0 0 0
SMALL
GASTEIGER

@<TRIPOS>ATOM
      1 C          64.1316   89.2929   13.1158 C.ar    1  UNL1        0.0053
      2 C          64.4498   89.0875   14.5671 C.ar    1  UNL1        0.0033
      3 C          64.2334   87.7447   15.1996 C.ar    1  UNL1        0.0382
      4 C          63.6987   86.6074   14.3807 C.ar    1  UNL1        0.1529
      5 C          63.3805   86.8128   12.9294 C.ar    1  UNL1        0.0881
      6 C          63.5969   88.1555   12.2969 C.ar    1  UNL1        0.0181
      7 N          62.8458   85.6754   12.1105 N.am    1  UNL1       -0.2528
      8 C          62.6294   84.3327   12.7430 C.2     1  UNL1        0.2697
      9 O          62.0947   83.1953   11.9241 O.2     1  UNL1       -0.2704
     10 C          62.9476   84.1272   14.1944 C.3     1  UNL1        0.2199
     11 C          63.0983   83.4444   15.5215 C.3     1  UNL1        0.0579
     12 O          63.4823   85.2645   15.0133 O.3     1  UNL1       -0.4686
     13 C          63.6735   90.9712   11.1861 C.ar    1  UNL1        0.0645
     14 N          63.8899   92.3139   10.5535 N.ar    1  UNL1       -0.2183
     15 C          64.7808   93.3213   11.2181 C.ar    1  UNL1        0.2145
     16 N          64.9972   94.6640   10.5855 N.pl3   1  UNL1       -0.3274
     17 N          65.4553   92.9858   12.5152 N.ar    1  UNL1       -0.1995
     18 C          65.2389   91.6430   13.1478 C.ar    1  UNL1        0.1293
     19 N          65.9133   91.3076   14.4449 N.pl3   1  UNL1       -0.3425
     20 C          64.3480   90.6357   12.4832 C.ar    1  UNL1        0.0449
     21 H          64.5545   94.8842    9.7341 H       1  UNL1        0.1452
     22 H          65.5819   95.3252   11.0217 H       1  UNL1        0.1452
     23 H          66.4980   91.9687   14.8811 H       1  UNL1        0.1437
     24 H          65.7713   90.4263   14.8601 H       1  UNL1        0.1437
     25 C          61.3103   90.2260   10.4050 C.3     1  UNL1        0.0067
     26 C          62.7826   89.9638   10.5215 C.3     1  UNL1        0.0460
     27 C          62.4653   82.7527   13.8364 C.ar    1  UNL1        0.0264
     28 C          61.2317   82.1982   14.4850 C.ar    1  UNL1        0.0293
     29 C          60.7494   80.8237   14.1270 C.ar    1  UNL1        0.1422
     30 F          59.5156   80.2692   14.7756 F       1  UNL1       -0.2041
     31 C          61.5006   80.0038   13.1205 C.ar    1  UNL1        0.0592
     32 C          62.7342   80.5583   12.4719 C.ar    1  UNL1        0.1422
     33 F          63.4855   79.7383   11.4653 F       1  UNL1       -0.2041
     34 C          63.2166   81.9327   12.8298 C.ar    1  UNL1        0.0293
     35 C          62.5276   85.8808   10.6592 C.3     1  UNL1        0.1010
     36 C          61.1575   86.3326   10.2484 C.3     1  UNL1        0.0539
     37 C          60.7756   86.3457    8.7978 C.3     1  UNL1        0.1440
     38 O          59.4226   86.8430    8.3829 O.3     1  UNL1       -0.3510
     39 C          59.2988   88.1191    7.6044 C.3     1  UNL1        0.1741
@<TRIPOS>BOND
     1    25    26    1
     2    26    13    1
     3    13    14   ar
     4    14    15   ar
     5    15    16    1
     6    15    17   ar
     7    17    18   ar
     8    18    19    1
     9    18    20   ar
    10    20     1    1
    11     1     2   ar
    12     2     3   ar
    13     3     4   ar
    14     4     5   ar
    15     5     6   ar
    16     5     7    1
    17     7    35    1
    18    35    36    1
    19    36    37    1
    20    37    38    1
    21    38    39    1
    22     7     8   am
    23     8     9    2
    24     8    10    1
    25    10    11    1
    26    10    27    1
    27    27    28   ar
    28    28    29   ar
    29    29    30    1
    30    29    31   ar
    31    31    32   ar
    32    32    33    1
    33    32    34   ar
    34    10    12    1
    35    20    13   ar
    36     6     1   ar
    37    34    27   ar
    38    12     4    1
    39    16    21    1
    40    16    22    1
    41    19    23    1
    42    19    24    1
@<TRIPOS>MOLECULE
*****
 39 42 0 0 0
SMALL
GASTEIGER

@<TRIPOS>ATOM
      1 C          64.6587   90.1686   13.7090 C.ar    1  UNL1        0.0053
      2 C          63.7085   90.4668   12.5874 C.ar    1  UNL1        0.0033
      3 C          62.9702   89.3490   11.9126 C.ar    1  UNL1        0.0382
      4 C          63.1821   87.9329   12.3596 C.ar    1  UNL1        0.1529
      5 C          64.1323   87.6346   13.4812 C.ar    1  UNL1        0.0881
      6 C          64.8706   88.7525   14.1560 C.ar    1  UNL1        0.0181
      7 N          64.3441   86.2185   13.9282 N.am    1  UNL1       -0.2528
      8 C          63.6058   85.1007   13.2535 C.2     1  UNL1        0.2697
      9 O          63.8177   83.6846   13.7004 O.2     1  UNL1       -0.2704
     10 C          62.6556   85.3989   12.1318 C.3     1  UNL1        0.2199
     11 C          61.6587   85.1788   11.0327 C.3     1  UNL1        0.0579
     12 O          62.4437   86.8150   11.6848 O.3     1  UNL1       -0.4686
     13 C          66.5487   91.9512   13.6896 C.ar    1  UNL1        0.0645
     14 N          67.2870   93.0690   14.3643 N.ar    1  UNL1       -0.2183
     15 C          66.8737   93.5222   15.7333 C.ar    1  UNL1        0.2145
     16 N          67.6121   94.6400   16.4080 N.pl3   1  UNL1       -0.3274
     17 N          65.7221   92.8575   16.4274 N.ar    1  UNL1       -0.1995
     18 C          64.9837   91.7396   15.7526 C.ar    1  UNL1        0.1293
     19 N          63.8321   91.0749   16.4468 N.pl3   1  UNL1       -0.3425
     20 C          65.3970   91.2865   14.3838 C.ar    1  UNL1        0.0449
     21 H          68.3680   95.0763   15.9524 H       1  UNL1        0.1452
     22 H          67.3408   94.9374   17.3064 H       1  UNL1        0.1452
     23 H          63.5608   91.3723   17.3453 H       1  UNL1        0.1437
     24 H          63.3475   90.3412   16.0040 H       1  UNL1        0.1437
     25 C          66.8445   92.4332   11.1538 C.3     1  UNL1        0.0067
     26 C          66.9620   91.4980   12.3207 C.3     1  UNL1        0.0460
     27 C          62.5213   83.9064   12.1970 C.ar    1  UNL1        0.0264
     28 C          63.0393   83.0570   11.0745 C.ar    1  UNL1        0.0293
     29 C          62.9050   81.5644   11.1398 C.ar    1  UNL1        0.1422
     30 F          63.4231   80.7149   10.0172 F       1  UNL1       -0.2041
     31 C          62.2527   80.9213   12.3275 C.ar    1  UNL1        0.0592
     32 C          61.7347   81.7707   13.4500 C.ar    1  UNL1        0.1422
     33 F          61.0823   81.1276   14.6378 F       1  UNL1       -0.2041
     34 C          61.8689   83.2633   13.3848 C.ar    1  UNL1        0.0293
     35 C          65.2943   85.9203   15.0498 C.3     1  UNL1        0.1010
     36 C          64.7647   85.5969   16.4155 C.3     1  UNL1        0.0539
     37 C          63.2938   85.3844   16.6185 C.3     1  UNL1        0.1440
     38 O          62.3937   86.5583   16.8674 O.3     1  UNL1       -0.3510
     39 C          62.9778   87.8774   17.2780 C.3     1  UNL1        0.1741
@<TRIPOS>BOND
     1    25    26    1
     2    26    13    1
     3    13    14   ar
     4    14    15   ar
     5    15    16    1
     6    15    17   ar
     7    17    18   ar
     8    18    19    1
     9    18    20   ar
    10    20     1    1
    11     1     2   ar
    12     2     3   ar
    13     3     4   ar
    14     4     5   ar
    15     5     6   ar
    16     5     7    1
    17     7    35    1
    18    35    36    1
    19    36    37    1
    20    37    38    1
    21    38    39    1
    22     7     8   am
    23     8     9    2
    24     8    10    1
    25    10    11    1
    26    10    27    1
    27    27    28   ar
    28    28    29   ar
    29    29    30    1
    30    29    31   ar
    31    31    32   ar
    32    32    33    1
    33    32    34   ar
    34    10    12    1
    35    20    13   ar
    36     6     1   ar
    37    34    27   ar
    38    12     4    1
    39    16    21    1
    40    16    22    1
    41    19    23    1
    42    19    24    1
@<TRIPOS>MOLECULE
*****
 39 42 0 0 0
SMALL
GASTEIGER

@<TRIPOS>ATOM
      1 C          64.6370   90.1427   13.6956 C.ar    1  UNL1        0.0053
      2 C          63.6984   90.4339   12.5624 C.ar    1  UNL1        0.0033
      3 C          62.9691   89.3115   11.8854 C.ar    1  UNL1        0.0382
      4 C          63.1785   87.8980   12.3415 C.ar    1  UNL1        0.1529
      5 C          64.1171   87.6068   13.4747 C.ar    1  UNL1        0.0881
      6 C          64.8464   88.7292   14.1517 C.ar    1  UNL1        0.0181
      7 N          64.3265   86.1933   13.9308 N.am    1  UNL1       -0.2528
      8 C          63.5972   85.0709   13.2538 C.2     1  UNL1        0.2697
      9 O          63.8065   83.6574   13.7100 O.2     1  UNL1       -0.2704
     10 C          62.6585   85.3621   12.1206 C.3     1  UNL1        0.2199
     11 C          61.6737   85.1350   11.0121 C.3     1  UNL1        0.0579
     12 O          62.4491   86.7756   11.6644 O.3     1  UNL1       -0.4686
     13 C          66.5074   91.9459   13.6765 C.ar    1  UNL1        0.0645
     14 N          67.2367   93.0682   14.3535 N.ar    1  UNL1       -0.2183
     15 C          66.8251   93.5098   15.7268 C.ar    1  UNL1        0.2145
     16 N          67.5544   94.6321   16.4038 N.pl3   1  UNL1       -0.3274
     17 N          65.6841   92.8290   16.4229 N.ar    1  UNL1       -0.1995
     18 C          64.9547   91.7066   15.7458 C.ar    1  UNL1        0.1293
     19 N          63.8138   91.0258   16.4419 N.pl3   1  UNL1       -0.3425
     20 C          65.3664   91.2651   14.3727 C.ar    1  UNL1        0.0449
     21 H          68.3033   95.0790   15.9469 H       1  UNL1        0.1452
     22 H          67.2843   94.9219   17.3050 H       1  UNL1        0.1452
     23 H          63.5436   91.3155   17.3432 H       1  UNL1        0.1437
     24 H          63.3351   90.2891   15.9976 H       1  UNL1        0.1437
     25 C          66.8216   92.4568   11.1486 C.3     1  UNL1        0.0067
     26 C          66.9190   91.5044   12.3033 C.3     1  UNL1        0.0460
     27 C          62.5258   83.8697   12.1918 C.ar    1  UNL1        0.0264
     28 C          61.8797   83.2302   13.3849 C.ar    1  UNL1        0.0293
     29 C          61.7471   81.7377   13.4561 C.ar    1  UNL1        0.1422
     30 F          61.1010   81.0983   14.6493 F       1  UNL1       -0.2041
     31 C          62.2605   80.8848   12.3342 C.ar    1  UNL1        0.0592
     32 C          62.9066   81.5243   11.1410 C.ar    1  UNL1        0.1422
     33 F          63.4201   80.6713   10.0190 F       1  UNL1       -0.2041
     34 C          63.0393   83.0167   11.0698 C.ar    1  UNL1        0.0293
     35 C          65.2651   85.9021   15.0640 C.3     1  UNL1        0.1010
     36 C          64.7231   85.6321   16.4364 C.3     1  UNL1        0.0539
     37 C          63.2552   85.3909   16.6289 C.3     1  UNL1        0.1440
     38 O          62.3512   86.5277   17.0039 O.3     1  UNL1       -0.3510
     39 C          62.9292   87.8809   17.2949 C.3     1  UNL1        0.1741
@<TRIPOS>BOND
     1    25    26    1
     2    26    13    1
     3    13    14   ar
     4    14    15   ar
     5    15    16    1
     6    15    17   ar
     7    17    18   ar
     8    18    19    1
     9    18    20   ar
    10    20     1    1
    11     1     2   ar
    12     2     3   ar
    13     3     4   ar
    14     4     5   ar
    15     5     6   ar
    16     5     7    1
    17     7    35    1
    18    35    36    1
    19    36    37    1
    20    37    38    1
    21    38    39    1
    22     7     8   am
    23     8     9    2
    24     8    10    1
    25    10    11    1
    26    10    27    1
    27    27    28   ar
    28    28    29   ar
    29    29    30    1
    30    29    31   ar
    31    31    32   ar
    32    32    33    1
    33    32    34   ar
    34    10    12    1
    35    20    13   ar
    36     6     1   ar
    37    34    27   ar
    38    12     4    1
    39    16    21    1
    40    16    22    1
    41    19    23    1
    42    19    24    1
@<TRIPOS>MOLECULE
*****
 39 42 0 0 0
SMALL
GASTEIGER

@<TRIPOS>ATOM
      1 C          62.6452   84.2331   12.5286 C.ar    1  UNL1        0.0053
      2 C          61.8868   84.9059   11.4231 C.ar    1  UNL1        0.0033
      3 C          61.9757   86.3932   11.2498 C.ar    1  UNL1        0.0382
      4 C          62.8229   87.2076   12.1820 C.ar    1  UNL1        0.1529
      5 C          63.5812   86.5348   13.2875 C.ar    1  UNL1        0.0881
      6 C          63.4924   85.0476   13.4608 C.ar    1  UNL1        0.0181
      7 N          64.4284   87.3493   14.2196 N.am    1  UNL1       -0.2528
      8 C          64.5173   88.8365   14.0463 C.2     1  UNL1        0.2697
      9 O          65.3645   89.6510   14.9785 O.2     1  UNL1       -0.2704
     10 C          63.7589   89.5094   12.9408 C.3     1  UNL1        0.2199
     11 C          63.2311   90.5962   12.0518 C.3     1  UNL1        0.0579
     12 O          62.9117   88.6950   12.0086 O.3     1  UNL1       -0.4686
     13 C          62.8898   81.8360   11.5570 C.ar    1  UNL1        0.0645
     14 N          62.8009   80.3487   11.7303 N.ar    1  UNL1       -0.2183
     15 C          62.3787   79.7711   13.0487 C.ar    1  UNL1        0.2145
     16 N          62.2899   78.2839   13.2220 N.pl3   1  UNL1       -0.3274
     17 N          62.0452   80.6809   14.1938 N.ar    1  UNL1       -0.1995
     18 C          62.1341   82.1683   14.0204 C.ar    1  UNL1        0.1293
     19 N          61.8007   83.0780   15.1654 N.pl3   1  UNL1       -0.3425
     20 C          62.5563   82.7458   12.7020 C.ar    1  UNL1        0.0449
     21 H          62.5087   77.6868   12.4705 H       1  UNL1        0.1452
     22 H          62.0127   77.9048   14.0873 H       1  UNL1        0.1452
     23 H          61.5235   82.6990   16.0307 H       1  UNL1        0.1437
     24 H          61.8590   84.0542   15.0517 H       1  UNL1        0.1437
     25 C          64.6770   83.0168   10.0867 C.3     1  UNL1        0.0067
     26 C          63.3120   82.4136   10.2385 C.3     1  UNL1        0.0460
     27 C          64.4228   90.7013   13.5642 C.ar    1  UNL1        0.0264
     28 C          64.1835   91.0224   15.0097 C.ar    1  UNL1        0.0293
     29 C          64.8474   92.2143   15.6331 C.ar    1  UNL1        0.1422
     30 F          64.6080   92.5354   17.0787 F       1  UNL1       -0.2041
     31 C          65.7507   93.0850   14.8111 C.ar    1  UNL1        0.0592
     32 C          65.9900   92.7639   13.3656 C.ar    1  UNL1        0.1422
     33 F          66.8934   93.6347   12.5435 F       1  UNL1       -0.2041
     34 C          65.3262   91.5720   12.7421 C.ar    1  UNL1        0.0293
     35 C          65.1868   86.6764   15.3251 C.3     1  UNL1        0.1010
     36 C          64.5508   85.5605   16.0999 C.3     1  UNL1        0.0539
     37 C          63.4392   85.8547   17.0632 C.3     1  UNL1        0.1440
     38 O          62.5357   87.0290   16.8298 O.3     1  UNL1       -0.3510
     39 C          62.9355   88.3910   17.3147 C.3     1  UNL1        0.1741
@<TRIPOS>BOND
     1    25    26    1
     2    26    13    1
     3    13    14   ar
     4    14    15   ar
     5    15    16    1
     6    15    17   ar
     7    17    18   ar
     8    18    19    1
     9    18    20   ar
    10    20     1    1
    11     1     2   ar
    12     2     3   ar
    13     3     4   ar
    14     4     5   ar
    15     5     6   ar
    16     5     7    1
    17     7    35    1
    18    35    36    1
    19    36    37    1
    20    37    38    1
    21    38    39    1
    22     7     8   am
    23     8     9    2
    24     8    10    1
    25    10    11    1
    26    10    27    1
    27    27    28   ar
    28    28    29   ar
    29    29    30    1
    30    29    31   ar
    31    31    32   ar
    32    32    33    1
    33    32    34   ar
    34    10    12    1
    35    20    13   ar
    36     6     1   ar
    37    34    27   ar
    38    12     4    1
    39    16    21    1
    40    16    22    1
    41    19    23    1
    42    19    24    1
@<TRIPOS>MOLECULE
*****
 39 42 0 0 0
SMALL
GASTEIGER

@<TRIPOS>ATOM
      1 C          65.3853   90.7343   14.0651 C.ar    1  UNL1        0.0053
      2 C          65.0998   89.4520   14.7891 C.ar    1  UNL1        0.0033
      3 C          64.1727   88.4397   14.1843 C.ar    1  UNL1        0.0382
      4 C          63.5312   88.7097   12.8556 C.ar    1  UNL1        0.1529
      5 C          63.8167   89.9920   12.1316 C.ar    1  UNL1        0.0881
      6 C          64.7437   91.0043   12.7364 C.ar    1  UNL1        0.0181
      7 N          63.1752   90.2619   10.8029 N.am    1  UNL1       -0.2528
      8 C          62.2481   89.2496   10.1981 C.2     1  UNL1        0.2697
      9 O          61.6066   89.5196    8.8694 O.2     1  UNL1       -0.2704
     10 C          61.9626   87.9672   10.9221 C.3     1  UNL1        0.2199
     11 C          61.3846   86.6157   11.2206 C.3     1  UNL1        0.0579
     12 O          62.6041   87.6973   12.2508 O.3     1  UNL1       -0.4686
     13 C          65.9990   92.3448   16.0093 C.ar    1  UNL1        0.0645
     14 N          66.9260   93.3571   16.6140 N.ar    1  UNL1       -0.2183
     15 C          68.1664   93.7714   15.8794 C.ar    1  UNL1        0.2145
     16 N          69.0934   94.7838   16.4841 N.pl3   1  UNL1       -0.3274
     17 N          68.4798   93.1733   14.5399 N.ar    1  UNL1       -0.1995
     18 C          67.5528   92.1609   13.9352 C.ar    1  UNL1        0.1293
     19 N          67.8662   91.5628   12.5958 N.pl3   1  UNL1       -0.3425
     20 C          66.3124   91.7467   14.6698 C.ar    1  UNL1        0.0449
     21 H          68.8877   95.1763   17.3632 H       1  UNL1        0.1452
     22 H          69.9076   95.0557   16.0020 H       1  UNL1        0.1452
     23 H          68.6803   91.8347   12.1136 H       1  UNL1        0.1437
     24 H          67.2577   90.8984   12.1988 H       1  UNL1        0.1437
     25 C          63.7372   92.9588   17.1307 C.3     1  UNL1        0.0067
     26 C          64.7585   91.9305   16.7439 C.3     1  UNL1        0.0460
     27 C          61.1203   87.7678    9.6970 C.ar    1  UNL1        0.0264
     28 C          60.2349   88.8752    9.2072 C.ar    1  UNL1        0.0293
     29 C          59.3926   88.6757    7.9821 C.ar    1  UNL1        0.1422
     30 F          58.5072   89.7831    7.4924 F       1  UNL1       -0.2041
     31 C          59.4357   87.3691    7.2469 C.ar    1  UNL1        0.0592
     32 C          60.3211   86.2618    7.7367 C.ar    1  UNL1        0.1422
     33 F          60.3642   84.9550    7.0014 F       1  UNL1       -0.2041
     34 C          61.1634   86.4611    8.9618 C.ar    1  UNL1        0.0293
     35 C          63.4606   91.5442   10.0789 C.3     1  UNL1        0.1010
     36 C          64.8612   92.0783   10.0233 C.3     1  UNL1        0.0539
     37 C          65.1940   93.3813   10.6879 C.3     1  UNL1        0.1440
     38 O          66.6222   93.8284   10.7891 O.3     1  UNL1       -0.3510
     39 C          67.4593   93.9510    9.5505 C.3     1  UNL1        0.1741
@<TRIPOS>BOND
     1    25    26    1
     2    26    13    1
     3    13    14   ar
     4    14    15   ar
     5    15    16    1
     6    15    17   ar
     7    17    18   ar
     8    18    19    1
     9    18    20   ar
    10    20     1    1
    11     1     2   ar
    12     2     3   ar
    13     3     4   ar
    14     4     5   ar
    15     5     6   ar
    16     5     7    1
    17     7    35    1
    18    35    36    1
    19    36    37    1
    20    37    38    1
    21    38    39    1
    22     7     8   am
    23     8     9    2
    24     8    10    1
    25    10    11    1
    26    10    27    1
    27    27    28   ar
    28    28    29   ar
    29    29    30    1
    30    29    31   ar
    31    31    32   ar
    32    32    33    1
    33    32    34   ar
    34    10    12    1
    35    20    13   ar
    36     6     1   ar
    37    34    27   ar
    38    12     4    1
    39    16    21    1
    40    16    22    1
    41    19    23    1
    42    19    24    1
@<TRIPOS>MOLECULE
*****
 39 42 0 0 0
SMALL
GASTEIGER

@<TRIPOS>ATOM
      1 C          62.7645   84.0386   11.7078 C.ar    1  UNL1        0.0053
      2 C          61.9778   84.8595   10.7295 C.ar    1  UNL1        0.0033
      3 C          61.9837   86.3561   10.8305 C.ar    1  UNL1        0.0382
      4 C          62.7765   87.0317   11.9099 C.ar    1  UNL1        0.1529
      5 C          63.5632   86.2109   12.8882 C.ar    1  UNL1        0.0881
      6 C          63.5573   84.7143   12.7871 C.ar    1  UNL1        0.0181
      7 N          64.3560   86.8865   13.9676 N.am    1  UNL1       -0.2528
      8 C          64.3620   88.3831   14.0686 C.2     1  UNL1        0.2697
      9 O          65.1547   89.0587   15.1480 O.2     1  UNL1       -0.2704
     10 C          63.5751   89.2040   13.0903 C.3     1  UNL1        0.2199
     11 C          62.9935   90.4044   12.4041 C.3     1  UNL1        0.0579
     12 O          62.7824   88.5284   12.0109 O.3     1  UNL1       -0.4686
     13 C          62.1879   81.7173   12.7221 C.ar    1  UNL1        0.0645
     14 N          62.1820   80.2207   12.6212 N.ar    1  UNL1       -0.2183
     15 C          62.7467   79.5488   11.4047 C.ar    1  UNL1        0.2145
     16 N          62.7407   78.0523   11.3037 N.pl3   1  UNL1       -0.3274
     17 N          63.3174   80.3735   10.2893 N.ar    1  UNL1       -0.1995
     18 C          63.3233   81.8702   10.3903 C.ar    1  UNL1        0.1293
     19 N          63.8940   82.6949    9.2749 N.pl3   1  UNL1       -0.3425
     20 C          62.7586   82.5420   11.6067 C.ar    1  UNL1        0.0449
     21 H          62.3662   77.5110   12.0358 H       1  UNL1        0.1452
     22 H          63.1114   77.6113   10.5053 H       1  UNL1        0.1452
     23 H          64.2646   82.2539    8.4765 H       1  UNL1        0.1437
     24 H          63.8979   83.6772    9.3412 H       1  UNL1        0.1437
     25 C          62.4785   82.5776   15.1564 C.3     1  UNL1        0.0067
     26 C          61.6232   82.3892   13.9386 C.3     1  UNL1        0.0460
     27 C          64.1659   90.2965   13.9313 C.ar    1  UNL1        0.0264
     28 C          63.5983   90.5882   15.2888 C.ar    1  UNL1        0.0293
     29 C          64.1891   91.6808   16.1299 C.ar    1  UNL1        0.1422
     30 F          63.6213   91.9724   17.4874 F       1  UNL1       -0.2041
     31 C          65.3474   92.4816   15.6135 C.ar    1  UNL1        0.0592
     32 C          65.9150   92.1900   14.2560 C.ar    1  UNL1        0.1422
     33 F          67.0734   92.9909   13.7396 F       1  UNL1       -0.2041
     34 C          65.3243   91.0975   13.4149 C.ar    1  UNL1        0.0293
     35 C          65.1428   86.0657   14.9459 C.3     1  UNL1        0.1010
     36 C          64.5067   85.6112   16.2261 C.3     1  UNL1        0.0539
     37 C          63.0152   85.4792   16.3169 C.3     1  UNL1        0.1440
     38 O          62.2210   86.4753   17.1087 O.3     1  UNL1       -0.3510
     39 C          62.8320   87.7924   17.4855 C.3     1  UNL1        0.1741
@<TRIPOS>BOND
     1    25    26    1
     2    26    13    1
     3    13    14   ar
     4    14    15   ar
     5    15    16    1
     6    15    17   ar
     7    17    18   ar
     8    18    19    1
     9    18    20   ar
    10    20     1    1
    11     1     2   ar
    12     2     3   ar
    13     3     4   ar
    14     4     5   ar
    15     5     6   ar
    16     5     7    1
    17     7    35    1
    18    35    36    1
    19    36    37    1
    20    37    38    1
    21    38    39    1
    22     7     8   am
    23     8     9    2
    24     8    10    1
    25    10    11    1
    26    10    27    1
    27    27    28   ar
    28    28    29   ar
    29    29    30    1
    30    29    31   ar
    31    31    32   ar
    32    32    33    1
    33    32    34   ar
    34    10    12    1
    35    20    13   ar
    36     6     1   ar
    37    34    27   ar
    38    12     4    1
    39    16    21    1
    40    16    22    1
    41    19    23    1
    42    19    24    1
@<TRIPOS>MOLECULE
*****
 39 42 0 0 0
SMALL
GASTEIGER

@<TRIPOS>ATOM
      1 C          64.7250   90.1006   13.7753 C.ar    1  UNL1        0.0053
      2 C          63.7707   90.4191   12.6627 C.ar    1  UNL1        0.0033
      3 C          63.0232   89.3144   11.9765 C.ar    1  UNL1        0.0382
      4 C          63.2301   87.8912   12.4028 C.ar    1  UNL1        0.1529
      5 C          64.1845   87.5727   13.5154 C.ar    1  UNL1        0.0881
      6 C          64.9319   88.6774   14.2016 C.ar    1  UNL1        0.0181
      7 N          64.3914   86.1495   13.9417 N.am    1  UNL1       -0.2528
      8 C          63.6440   85.0448   13.2555 C.2     1  UNL1        0.2697
      9 O          63.8509   83.6216   13.6818 O.2     1  UNL1       -0.2704
     10 C          62.6896   85.3633   12.1429 C.3     1  UNL1        0.2199
     11 C          61.6860   85.1634   11.0461 C.3     1  UNL1        0.0579
     12 O          62.4827   86.7865   11.7166 O.3     1  UNL1       -0.4686
     13 C          64.9504   91.7794   15.7453 C.ar    1  UNL1        0.0645
     14 N          65.6978   92.8841   16.4315 N.ar    1  UNL1       -0.2183
     15 C          66.9674   93.4147   15.8341 C.ar    1  UNL1        0.2145
     16 N          67.7148   94.5194   16.5204 N.pl3   1  UNL1       -0.3274
     17 N          67.4894   92.8406   14.5504 N.ar    1  UNL1       -0.1995
     18 C          66.7419   91.7359   13.8642 C.ar    1  UNL1        0.1293
     19 N          67.2640   91.1618   12.5805 N.pl3   1  UNL1       -0.3425
     20 C          65.4725   91.2053   14.4616 C.ar    1  UNL1        0.0449
     21 H          67.3721   94.8962   17.3630 H       1  UNL1        0.1452
     22 H          68.5480   94.8676   16.1283 H       1  UNL1        0.1452
     23 H          68.0972   91.5100   12.1884 H       1  UNL1        0.1437
     24 H          66.7734   90.4367   12.1300 H       1  UNL1        0.1437
     25 C          63.5338   89.7799   16.6086 C.3     1  UNL1        0.0067
     26 C          63.6809   91.2488   16.3427 C.3     1  UNL1        0.0460
     27 C          62.5480   83.8707   12.1883 C.ar    1  UNL1        0.0264
     28 C          61.8979   83.2146   13.3702 C.ar    1  UNL1        0.0293
     29 C          61.7563   81.7220   13.4155 C.ar    1  UNL1        0.1422
     30 F          61.1061   81.0659   14.5976 F       1  UNL1       -0.2041
     31 C          62.2647   80.8855   12.2791 C.ar    1  UNL1        0.0592
     32 C          62.9148   81.5416   11.0972 C.ar    1  UNL1        0.1422
     33 F          63.4234   80.7050    9.9607 F       1  UNL1       -0.2041
     34 C          63.0565   83.0341   11.0518 C.ar    1  UNL1        0.0293
     35 C          65.3457   85.8310   15.0542 C.3     1  UNL1        0.1010
     36 C          64.8208   85.4335   16.4019 C.3     1  UNL1        0.0539
     37 C          63.3424   85.3116   16.6249 C.3     1  UNL1        0.1440
     38 O          62.5532   86.5004   17.0875 O.3     1  UNL1       -0.3510
     39 C          62.6025   86.9192   18.5270 C.3     1  UNL1        0.1741
@<TRIPOS>BOND
     1    25    26    1
     2    26    13    1
     3    13    14   ar
     4    14    15   ar
     5    15    16    1
     6    15    17   ar
     7    17    18   ar
     8    18    19    1
     9    18    20   ar
    10    20     1    1
    11     1     2   ar
    12     2     3   ar
    13     3     4   ar
    14     4     5   ar
    15     5     6   ar
    16     5     7    1
    17     7    35    1
    18    35    36    1
    19    36    37    1
    20    37    38    1
    21    38    39    1
    22     7     8   am
    23     8     9    2
    24     8    10    1
    25    10    11    1
    26    10    27    1
    27    27    28   ar
    28    28    29   ar
    29    29    30    1
    30    29    31   ar
    31    31    32   ar
    32    32    33    1
    33    32    34   ar
    34    10    12    1
    35    20    13   ar
    36     6     1   ar
    37    34    27   ar
    38    12     4    1
    39    16    21    1
    40    16    22    1
    41    19    23    1
    42    19    24    1
