@<TRIPOS>MOLECULE
*****
 31 34 0 0 0
SMALL
GASTEIGER

@<TRIPOS>ATOM
      1 C          63.5086   86.9781   15.1911 C.ar    1  UNL1        0.1646
      2 N          64.0508   87.8309   14.0826 N.ar    1  UNL1       -0.2239
      3 C          64.1413   89.2414   14.5848 C.ar    1  UNL1        0.0898
      4 C          63.6550   89.2603   16.0037 C.ar    1  UNL1        0.0572
      5 S          63.2640   87.8616   16.3785 S.2     1  UNL1       -0.0509
      6 C          64.6320   90.4252   13.8051 C.ar    1  UNL1        0.0206
      7 C          63.9608   90.8066   12.5190 C.ar    1  UNL1        0.0032
      8 C          64.4514   91.9904   11.7393 C.ar    1  UNL1        0.0199
      9 C          65.6133   92.7927   12.2457 C.ar    1  UNL1        0.0929
     10 C          66.2845   92.4113   13.5318 C.ar    1  UNL1        0.1562
     11 F          67.4463   93.2136   14.0381 F       1  UNL1       -0.2026
     12 C          65.7938   91.2275   14.3114 C.ar    1  UNL1        0.0327
     13 N          66.1039   93.9765   11.4659 N.ar    1  UNL1       -0.2846
     14 C          66.1838   95.3890   11.9645 C.ar    1  UNL1        0.1826
     15 N          66.7300   96.2411   10.8575 N.ar    1  UNL1       -0.2280
     16 C          66.9878   95.3552    9.6747 C.ar    1  UNL1        0.0786
     17 C          67.5363   95.7922    8.3487 C.3     1  UNL1        0.0538
     18 C          66.6009   93.9556   10.0508 C.ar    1  UNL1        0.0963
     19 N          63.2554   85.5011   15.1241 N.pl3   1  UNL1       -0.2784
     20 H          63.2099   84.9714   15.9527 H       1  UNL1        0.1555
     21 N          62.6548   83.4072   13.5750 N.ar    1  UNL1       -0.2380
     22 N          62.5980   83.1636   12.0960 N.ar    1  UNL1       -0.1726
     23 C          62.9799   84.4372   11.4016 C.ar    1  UNL1        0.0807
     24 C          63.2726   85.4678   12.4513 C.ar    1  UNL1        0.0505
     25 C          63.0717   84.8312   13.7946 C.ar    1  UNL1        0.1317
     26 C          63.0557   84.6438    9.9178 C.3     1  UNL1        0.0372
     27 C          62.1866   85.8600   10.0428 C.3     1  UNL1        0.0060
     28 C          63.9247   83.4276    9.7929 C.3     1  UNL1        0.0060
     29 C          63.1315   84.8504    8.4340 C.3     1  UNL1        0.0060
     30 C          61.5893   81.1541   14.3087 C.3     1  UNL1        0.0285
     31 C          62.3484   82.4030   14.6463 C.3     1  UNL1        0.1289
@<TRIPOS>BOND
     1    30    31    1
     2    31    21    1
     3    21    22   ar
     4    22    23   ar
     5    23    26    1
     6    26    27    1
     7    26    28    1
     8    26    29    1
     9    23    24   ar
    10    24    25   ar
    11    25    19    1
    12    19     1    1
    13     1     2   ar
    14     2     3   ar
    15     3     6    1
    16     6     7   ar
    17     7     8   ar
    18     8     9   ar
    19     9    13    1
    20    13    14   ar
    21    14    15   ar
    22    15    16   ar
    23    16    17    1
    24    16    18   ar
    25     9    10   ar
    26    10    11    1
    27    10    12   ar
    28     3     4   ar
    29     4     5   ar
    30    25    21   ar
    31     5     1   ar
    32    12     6   ar
    33    18    13   ar
    34    19    20    1
@<TRIPOS>MOLECULE
*****
 31 34 0 0 0
SMALL
GASTEIGER

@<TRIPOS>ATOM
      1 C          63.8309   90.0705   13.5280 C.ar    1  UNL1        0.1646
      2 N          63.5087   88.8345   12.7416 N.ar    1  UNL1       -0.2239
      3 C          63.7508   87.6467   13.6251 C.ar    1  UNL1        0.0898
      4 C          64.2227   88.1487   14.9576 C.ar    1  UNL1        0.0572
      5 S          64.2722   89.6466   14.8976 S.2     1  UNL1       -0.0509
      6 C          63.5554   86.2093   13.2433 C.ar    1  UNL1        0.0206
      7 C          62.8499   85.8619   11.9660 C.ar    1  UNL1        0.0032
      8 C          62.6545   84.4245   11.5842 C.ar    1  UNL1        0.0199
      9 C          63.1647   83.3346   12.4796 C.ar    1  UNL1        0.0929
     10 C          63.8702   83.6821   13.7569 C.ar    1  UNL1        0.1562
     11 F          64.3804   82.5922   14.6523 F       1  UNL1       -0.2026
     12 C          64.0656   85.1194   14.1387 C.ar    1  UNL1        0.0327
     13 N          62.9693   81.8972   12.0977 N.ar    1  UNL1       -0.2846
     14 C          62.5523   80.7891   13.0188 C.ar    1  UNL1        0.1826
     15 N          62.4819   79.5226   12.2181 N.ar    1  UNL1       -0.2280
     16 C          62.8552   79.8481   10.8022 C.ar    1  UNL1        0.0786
     17 C          62.9166   78.8765    9.6610 C.3     1  UNL1        0.0538
     18 C          63.1564   81.3156   10.7278 C.ar    1  UNL1        0.0963
     19 N          63.7296   91.4825   13.0320 N.pl3   1  UNL1       -0.2784
     20 H          62.8609   91.9456   13.0391 H       1  UNL1        0.1555
     21 N          66.0518   92.7627   13.3684 N.ar    1  UNL1       -0.2380
     22 N          67.0688   93.3740   12.4506 N.ar    1  UNL1       -0.1726
     23 C          66.5972   93.1779   11.0402 C.ar    1  UNL1        0.0807
     24 C          65.2891   92.4455   11.0863 C.ar    1  UNL1        0.0505
     25 C          64.9520   92.1889   12.5252 C.ar    1  UNL1        0.1317
     26 C          67.3090   93.6341    9.8012 C.3     1  UNL1        0.0372
     27 C          66.5678   94.9371    9.8551 C.3     1  UNL1        0.0060
     28 C          68.0502   92.3312    9.7472 C.3     1  UNL1        0.0060
     29 C          68.0209   94.0903    8.5621 C.3     1  UNL1        0.0060
     30 C          67.3793   93.1545   15.5671 C.3     1  UNL1        0.0285
     31 C          66.1225   92.7309   14.8664 C.3     1  UNL1        0.1289
@<TRIPOS>BOND
     1    30    31    1
     2    31    21    1
     3    21    22   ar
     4    22    23   ar
     5    23    26    1
     6    26    27    1
     7    26    28    1
     8    26    29    1
     9    23    24   ar
    10    24    25   ar
    11    25    19    1
    12    19     1    1
    13     1     2   ar
    14     2     3   ar
    15     3     6    1
    16     6     7   ar
    17     7     8   ar
    18     8     9   ar
    19     9    13    1
    20    13    14   ar
    21    14    15   ar
    22    15    16   ar
    23    16    17    1
    24    16    18   ar
    25     9    10   ar
    26    10    11    1
    27    10    12   ar
    28     3     4   ar
    29     4     5   ar
    30    25    21   ar
    31     5     1   ar
    32    12     6   ar
    33    18    13   ar
    34    19    20    1
@<TRIPOS>MOLECULE
*****
 31 34 0 0 0
SMALL
GASTEIGER

@<TRIPOS>ATOM
      1 C          63.5106   91.1634   11.3500 C.ar    1  UNL1        0.1646
      2 N          63.7704   89.8677   12.0596 N.ar    1  UNL1       -0.2239
      3 C          62.8755   88.8236   11.4604 C.ar    1  UNL1        0.0898
      4 C          62.0627   89.4740   10.3805 C.ar    1  UNL1        0.0572
      5 S          62.4551   90.9201   10.3122 S.2     1  UNL1       -0.0509
      6 C          62.8057   87.3820   11.8693 C.ar    1  UNL1        0.0206
      7 C          62.0122   86.4076   11.0502 C.ar    1  UNL1        0.0032
      8 C          61.9425   84.9662   11.4592 C.ar    1  UNL1        0.0199
      9 C          62.6662   84.4991   12.6872 C.ar    1  UNL1        0.0929
     10 C          63.4597   85.4734   13.5063 C.ar    1  UNL1        0.1562
     11 F          64.1834   85.0064   14.7343 F       1  UNL1       -0.2026
     12 C          63.5294   86.9149   13.0974 C.ar    1  UNL1        0.0327
     13 N          62.5964   83.0575   13.0961 N.ar    1  UNL1       -0.2846
     14 C          62.4297   82.5453   14.4961 C.ar    1  UNL1        0.1826
     15 N          62.4114   81.0464   14.4421 N.ar    1  UNL1       -0.2280
     16 C          62.5667   80.6323   13.0087 C.ar    1  UNL1        0.0786
     17 C          62.6015   79.2226   12.4971 C.3     1  UNL1        0.0538
     18 C          62.6811   81.8752   12.1769 C.ar    1  UNL1        0.0963
     19 N          64.1874   92.4726   11.6291 N.pl3   1  UNL1       -0.2784
     20 H          63.7441   93.3175   11.3865 H       1  UNL1        0.1555
     21 N          66.8581   92.5627   11.5662 N.ar    1  UNL1       -0.2380
     22 N          67.9441   92.5624   12.6009 N.ar    1  UNL1       -0.1726
     23 C          67.2967   92.4942   13.9523 C.ar    1  UNL1        0.0807
     24 C          65.8107   92.4522   13.7527 C.ar    1  UNL1        0.0505
     25 C          65.5396   92.4946   12.2780 C.ar    1  UNL1        0.1317
     26 C          68.0101   92.4718   15.2715 C.3     1  UNL1        0.0372
     27 C          69.3230   92.3338   14.5592 C.3     1  UNL1        0.0060
     28 C          66.6972   92.6098   15.9838 C.3     1  UNL1        0.0060
     29 C          68.7235   92.4494   16.5909 C.3     1  UNL1        0.0060
     30 C          68.3670   92.2056    9.4816 C.3     1  UNL1        0.0285
     31 C          67.0560   92.6208   10.0804 C.3     1  UNL1        0.1289
@<TRIPOS>BOND
     1    30    31    1
     2    31    21    1
     3    21    22   ar
     4    22    23   ar
     5    23    26    1
     6    26    27    1
     7    26    28    1
     8    26    29    1
     9    23    24   ar
    10    24    25   ar
    11    25    19    1
    12    19     1    1
    13     1     2   ar
    14     2     3   ar
    15     3     6    1
    16     6     7   ar
    17     7     8   ar
    18     8     9   ar
    19     9    13    1
    20    13    14   ar
    21    14    15   ar
    22    15    16   ar
    23    16    17    1
    24    16    18   ar
    25     9    10   ar
    26    10    11    1
    27    10    12   ar
    28     3     4   ar
    29     4     5   ar
    30    25    21   ar
    31     5     1   ar
    32    12     6   ar
    33    18    13   ar
    34    19    20    1
@<TRIPOS>MOLECULE
*****
 31 34 0 0 0
SMALL
GASTEIGER

@<TRIPOS>ATOM
      1 C          58.9327   89.9709    6.0974 C.ar    1  UNL1        0.1646
      2 N          60.1776   90.3470    5.3500 N.ar    1  UNL1       -0.2239
      3 C          59.8436   91.4907    4.4387 C.ar    1  UNL1        0.0898
      4 C          58.3922   91.8215    4.6230 C.ar    1  UNL1        0.0572
      5 S          57.8291   90.8823    5.6481 S.2     1  UNL1       -0.0509
      6 C          60.7941   92.1822    3.5068 C.ar    1  UNL1        0.0206
      7 C          62.2102   91.7022    3.3877 C.ar    1  UNL1        0.0032
      8 C          63.1606   92.3937    2.4558 C.ar    1  UNL1        0.0199
      9 C          62.6949   93.5653    1.6430 C.ar    1  UNL1        0.0929
     10 C          61.2789   94.0453    1.7621 C.ar    1  UNL1        0.1562
     11 F          60.8132   95.2168    0.9494 F       1  UNL1       -0.2026
     12 C          60.3284   93.3538    2.6940 C.ar    1  UNL1        0.0327
     13 N          63.6454   94.2568    0.7111 N.ar    1  UNL1       -0.2846
     14 C          64.9657   94.8615    1.0872 C.ar    1  UNL1        0.1826
     15 N          65.5788   95.4434   -0.1519 N.ar    1  UNL1       -0.2280
     16 C          64.6375   95.1984   -1.2938 C.ar    1  UNL1        0.0786
     17 C          64.8531   95.6138   -2.7189 C.3     1  UNL1        0.0538
     18 C          63.4426   94.4650   -0.7604 C.ar    1  UNL1        0.0963
     19 N          58.8123   88.8759    7.1154 N.pl3   1  UNL1       -0.2784
     20 H          58.0013   88.3185    7.1453 H       1  UNL1        0.1555
     21 N          60.6281   87.3230    8.3138 N.ar    1  UNL1       -0.2380
     22 N          61.6717   87.5331    9.3707 N.ar    1  UNL1       -0.1726
     23 C          61.6160   88.9699    9.7978 C.ar    1  UNL1        0.0807
     24 C          60.5381   89.6478    9.0050 C.ar    1  UNL1        0.0505
     25 C          59.9276   88.6299    8.0878 C.ar    1  UNL1        0.1317
     26 C          62.4855   89.6155   10.8356 C.3     1  UNL1        0.0372
     27 C          62.4378   90.9062   10.0728 C.3     1  UNL1        0.0060
     28 C          62.5333   88.3248   11.5984 C.3     1  UNL1        0.0060
     29 C          63.3552   90.2610   11.8735 C.3     1  UNL1        0.0060
     30 C          61.4642   85.1847    7.0978 C.3     1  UNL1        0.0285
     31 C          60.3364   86.0325    7.6070 C.3     1  UNL1        0.1289
@<TRIPOS>BOND
     1    30    31    1
     2    31    21    1
     3    21    22   ar
     4    22    23   ar
     5    23    26    1
     6    26    27    1
     7    26    28    1
     8    26    29    1
     9    23    24   ar
    10    24    25   ar
    11    25    19    1
    12    19     1    1
    13     1     2   ar
    14     2     3   ar
    15     3     6    1
    16     6     7   ar
    17     7     8   ar
    18     8     9   ar
    19     9    13    1
    20    13    14   ar
    21    14    15   ar
    22    15    16   ar
    23    16    17    1
    24    16    18   ar
    25     9    10   ar
    26    10    11    1
    27    10    12   ar
    28     3     4   ar
    29     4     5   ar
    30    25    21   ar
    31     5     1   ar
    32    12     6   ar
    33    18    13   ar
    34    19    20    1
@<TRIPOS>MOLECULE
*****
 31 34 0 0 0
SMALL
GASTEIGER

@<TRIPOS>ATOM
      1 C          61.4574   87.8362   10.1796 C.ar    1  UNL1        0.1646
      2 N          62.6497   88.1233   11.0433 N.ar    1  UNL1       -0.2239
      3 C          62.5989   89.5696   11.4378 C.ar    1  UNL1        0.0898
      4 C          61.3751   90.1764   10.8178 C.ar    1  UNL1        0.0572
      5 S          60.6696   89.1052   10.0402 S.2     1  UNL1       -0.0509
      6 C          63.5966   90.2838   12.3007 C.ar    1  UNL1        0.0206
      7 C          63.9661   89.7226   13.6418 C.ar    1  UNL1        0.0032
      8 C          64.9637   90.4368   14.5046 C.ar    1  UNL1        0.0199
      9 C          65.5919   91.7122   14.0264 C.ar    1  UNL1        0.0929
     10 C          65.2225   92.2734   12.6853 C.ar    1  UNL1        0.1562
     11 F          65.8507   93.5488   12.2071 F       1  UNL1       -0.2026
     12 C          64.2248   91.5592   11.8225 C.ar    1  UNL1        0.0327
     13 N          66.5897   92.4264   14.8893 N.ar    1  UNL1       -0.2846
     14 C          66.3697   92.8775   16.3029 C.ar    1  UNL1        0.1826
     15 N          67.6265   93.5447   16.7774 N.ar    1  UNL1       -0.2280
     16 C          68.6233   93.5060   15.6570 C.ar    1  UNL1        0.0786
     17 C          70.0162   94.0610   15.6967 C.3     1  UNL1        0.0538
     18 C          67.9824   92.8148   14.4902 C.ar    1  UNL1        0.0963
     19 N          61.1133   86.5126    9.5634 N.pl3   1  UNL1       -0.2784
     20 H          60.3120   86.4264    8.9979 H       1  UNL1        0.1555
     21 N          62.8062   84.5992    8.7776 N.ar    1  UNL1       -0.2380
     22 N          63.5250   83.4732    9.4600 N.ar    1  UNL1       -0.1726
     23 C          63.1529   83.4988   10.9129 C.ar    1  UNL1        0.0807
     24 C          62.2043   84.6404   11.1284 C.ar    1  UNL1        0.0505
     25 C          61.9899   85.3205    9.8088 C.ar    1  UNL1        0.1317
     26 C          63.6435   82.5493   11.9654 C.3     1  UNL1        0.0372
     27 C          63.0903   81.3955   11.1825 C.3     1  UNL1        0.0060
     28 C          64.1967   83.7029   12.7482 C.3     1  UNL1        0.0060
     29 C          64.1341   81.5998   13.0179 C.3     1  UNL1        0.0060
     30 C          61.7601   84.5854    6.3995 C.3     1  UNL1        0.0285
     31 C          62.8891   84.9433    7.3200 C.3     1  UNL1        0.1289
@<TRIPOS>BOND
     1    30    31    1
     2    31    21    1
     3    21    22   ar
     4    22    23   ar
     5    23    26    1
     6    26    27    1
     7    26    28    1
     8    26    29    1
     9    23    24   ar
    10    24    25   ar
    11    25    19    1
    12    19     1    1
    13     1     2   ar
    14     2     3   ar
    15     3     6    1
    16     6     7   ar
    17     7     8   ar
    18     8     9   ar
    19     9    13    1
    20    13    14   ar
    21    14    15   ar
    22    15    16   ar
    23    16    17    1
    24    16    18   ar
    25     9    10   ar
    26    10    11    1
    27    10    12   ar
    28     3     4   ar
    29     4     5   ar
    30    25    21   ar
    31     5     1   ar
    32    12     6   ar
    33    18    13   ar
    34    19    20    1
@<TRIPOS>MOLECULE
*****
 31 34 0 0 0
SMALL
GASTEIGER

@<TRIPOS>ATOM
      1 C          59.7086   89.0945    7.5382 C.ar    1  UNL1        0.1646
      2 N          60.5395   90.0177    8.3792 N.ar    1  UNL1       -0.2239
      3 C          61.2522   89.1916    9.4086 C.ar    1  UNL1        0.0898
      4 C          60.8617   87.7579    9.2037 C.ar    1  UNL1        0.0572
      5 S          59.9077   87.6978    8.0478 S.2     1  UNL1       -0.0509
      6 C          62.1906   89.7085   10.4585 C.ar    1  UNL1        0.0206
      7 C          62.7785   91.0823   10.3282 C.ar    1  UNL1        0.0032
      8 C          63.7169   91.5991   11.3781 C.ar    1  UNL1        0.0199
      9 C          64.0673   90.7421   12.5583 C.ar    1  UNL1        0.0929
     10 C          63.4793   89.3684   12.6886 C.ar    1  UNL1        0.1562
     11 F          63.8298   88.5114   13.8688 F       1  UNL1       -0.2026
     12 C          62.5410   88.8516   11.6387 C.ar    1  UNL1        0.0327
     13 N          65.0057   91.2590   13.6082 N.ar    1  UNL1       -0.2846
     14 C          64.6872   91.4418   15.0626 C.ar    1  UNL1        0.1826
     15 N          65.9119   91.9796   15.7413 N.ar    1  UNL1       -0.2280
     16 C          66.9874   92.1292   14.7064 C.ar    1  UNL1        0.0786
     17 C          68.3788   92.6354   14.9475 C.3     1  UNL1        0.0538
     18 C          66.4273   91.6839   13.3881 C.ar    1  UNL1        0.0963
     19 N          58.8323   89.4973    6.3893 N.pl3   1  UNL1       -0.2784
     20 H          57.9403   89.0938    6.2855 H       1  UNL1        0.1555
     21 N          58.4961   91.6186    4.7982 N.ar    1  UNL1       -0.2380
     22 N          59.3766   92.3930    3.8626 N.ar    1  UNL1       -0.1726
     23 C          60.7398   91.7676    3.8849 C.ar    1  UNL1        0.0807
     24 C          60.7018   90.6068    4.8340 C.ar    1  UNL1        0.0505
     25 C          59.3152   90.5147    5.3985 C.ar    1  UNL1        0.1317
     26 C          61.9317   92.2231    3.0964 C.3     1  UNL1        0.0372
     27 C          61.1121   93.3260    2.4946 C.3     1  UNL1        0.0060
     28 C          62.7513   91.1204    3.6981 C.3     1  UNL1        0.0060
     29 C          63.1237   92.6787    2.3078 C.3     1  UNL1        0.0060
     30 C          56.0559   90.7761    5.0905 C.3     1  UNL1        0.0285
     31 C          57.0503   91.8990    5.0832 C.3     1  UNL1        0.1289
@<TRIPOS>BOND
     1    30    31    1
     2    31    21    1
     3    21    22   ar
     4    22    23   ar
     5    23    26    1
     6    26    27    1
     7    26    28    1
     8    26    29    1
     9    23    24   ar
    10    24    25   ar
    11    25    19    1
    12    19     1    1
    13     1     2   ar
    14     2     3   ar
    15     3     6    1
    16     6     7   ar
    17     7     8   ar
    18     8     9   ar
    19     9    13    1
    20    13    14   ar
    21    14    15   ar
    22    15    16   ar
    23    16    17    1
    24    16    18   ar
    25     9    10   ar
    26    10    11    1
    27    10    12   ar
    28     3     4   ar
    29     4     5   ar
    30    25    21   ar
    31     5     1   ar
    32    12     6   ar
    33    18    13   ar
    34    19    20    1
@<TRIPOS>MOLECULE
*****
 31 34 0 0 0
SMALL
GASTEIGER

@<TRIPOS>ATOM
      1 C          59.6184   88.2609    9.2169 C.ar    1  UNL1        0.1646
      2 N          59.7692   89.5493    8.4637 N.ar    1  UNL1       -0.2239
      3 C          59.5506   89.2633    7.0076 C.ar    1  UNL1        0.0898
      4 C          59.2647   87.7981    6.8608 C.ar    1  UNL1        0.0572
      5 S          59.3066   87.1786    8.2262 S.2     1  UNL1       -0.0509
      6 C          59.6078   90.2664    5.8937 C.ar    1  UNL1        0.0206
      7 C          58.3534   90.9476    5.4327 C.ar    1  UNL1        0.0032
      8 C          58.4107   91.9506    4.3189 C.ar    1  UNL1        0.0199
      9 C          59.7223   92.2725    3.6661 C.ar    1  UNL1        0.0929
     10 C          60.9766   91.5913    4.1272 C.ar    1  UNL1        0.1562
     11 F          62.2882   91.9132    3.4744 F       1  UNL1       -0.2026
     12 C          60.9194   90.5883    5.2410 C.ar    1  UNL1        0.0327
     13 N          59.7795   93.2756    2.5523 N.ar    1  UNL1       -0.2846
     14 C          60.3697   94.6521    2.6349 C.ar    1  UNL1        0.1826
     15 N          60.2116   95.3056    1.2940 N.ar    1  UNL1       -0.2280
     16 C          59.5236   94.3328    0.3826 C.ar    1  UNL1        0.0786
     17 C          59.1655   94.5726   -1.0541 C.3     1  UNL1        0.0538
     18 C          59.2566   93.0783    1.1603 C.ar    1  UNL1        0.0963
     19 N          59.7554   88.0855   10.7003 N.pl3   1  UNL1       -0.2784
     20 H          58.9651   87.8670   11.2452 H       1  UNL1        0.1555
     21 N          62.0878   87.1462   11.6073 N.ar    1  UNL1       -0.2380
     22 N          63.2858   87.7502   12.2782 N.ar    1  UNL1       -0.1726
     23 C          63.0348   89.2204   12.4389 C.ar    1  UNL1        0.0807
     24 C          61.6818   89.5248   11.8675 C.ar    1  UNL1        0.0505
     25 C          61.0965   88.2430   11.3535 C.ar    1  UNL1        0.1317
     26 C          63.9723   90.2118   13.0619 C.3     1  UNL1        0.0372
     27 C          63.7388   91.1521   11.9167 C.3     1  UNL1        0.0060
     28 C          64.2057   89.2716   14.2070 C.3     1  UNL1        0.0060
     29 C          64.9098   91.2033   13.6849 C.3     1  UNL1        0.0060
     30 C          62.7410   84.6533   11.9369 C.3     1  UNL1        0.0285
     31 C          61.9120   85.6994   11.2525 C.3     1  UNL1        0.1289
@<TRIPOS>BOND
     1    30    31    1
     2    31    21    1
     3    21    22   ar
     4    22    23   ar
     5    23    26    1
     6    26    27    1
     7    26    28    1
     8    26    29    1
     9    23    24   ar
    10    24    25   ar
    11    25    19    1
    12    19     1    1
    13     1     2   ar
    14     2     3   ar
    15     3     6    1
    16     6     7   ar
    17     7     8   ar
    18     8     9   ar
    19     9    13    1
    20    13    14   ar
    21    14    15   ar
    22    15    16   ar
    23    16    17    1
    24    16    18   ar
    25     9    10   ar
    26    10    11    1
    27    10    12   ar
    28     3     4   ar
    29     4     5   ar
    30    25    21   ar
    31     5     1   ar
    32    12     6   ar
    33    18    13   ar
    34    19    20    1
@<TRIPOS>MOLECULE
*****
 31 34 0 0 0
SMALL
GASTEIGER

@<TRIPOS>ATOM
      1 C          59.7421   88.3813    9.1429 C.ar    1  UNL1        0.1646
      2 N          59.8906   89.6630    8.3780 N.ar    1  UNL1       -0.2239
      3 C          59.6328   89.3708    6.9295 C.ar    1  UNL1        0.0898
      4 C          59.3250   87.9086    6.7992 C.ar    1  UNL1        0.0572
      5 S          59.3925   87.2970    8.1672 S.2     1  UNL1       -0.0509
      6 C          59.6754   90.3662    5.8080 C.ar    1  UNL1        0.0206
      7 C          58.4235   91.0786    5.3896 C.ar    1  UNL1        0.0032
      8 C          58.4661   92.0739    4.2682 C.ar    1  UNL1        0.0199
      9 C          59.7606   92.3568    3.5653 C.ar    1  UNL1        0.0929
     10 C          61.0126   91.6444    3.9838 C.ar    1  UNL1        0.1562
     11 F          62.3071   91.9274    3.2808 F       1  UNL1       -0.2026
     12 C          60.9699   90.6491    5.1051 C.ar    1  UNL1        0.0327
     13 N          59.8032   93.3522    2.4439 N.ar    1  UNL1       -0.2846
     14 C          60.3382   94.7511    2.5265 C.ar    1  UNL1        0.1826
     15 N          60.1839   95.3869    1.1767 N.ar    1  UNL1       -0.2280
     16 C          59.5535   94.3808    0.2598 C.ar    1  UNL1        0.0786
     17 C          59.2174   94.5948   -1.1863 C.3     1  UNL1        0.0538
     18 C          59.3182   93.1234    1.0430 C.ar    1  UNL1        0.0963
     19 N          59.9132   88.2134   10.6237 N.pl3   1  UNL1       -0.2784
     20 H          59.2391   88.5783   11.2416 H       1  UNL1        0.1555
     21 N          62.3175   88.1250   11.7882 N.ar    1  UNL1       -0.2380
     22 N          63.2651   87.0313   12.1834 N.ar    1  UNL1       -0.1726
     23 C          62.6442   85.7201   11.8024 C.ar    1  UNL1        0.0807
     24 C          61.3131   86.0033   11.1717 C.ar    1  UNL1        0.0505
     25 C          61.1111   87.4896   11.1630 C.ar    1  UNL1        0.1317
     26 C          63.2485   84.3637   12.0147 C.3     1  UNL1        0.0372
     27 C          63.1840   84.1038   10.5387 C.3     1  UNL1        0.0060
     28 C          63.3131   84.6235   13.4906 C.3     1  UNL1        0.0060
     29 C          63.8529   83.0073   12.2271 C.3     1  UNL1        0.0060
     30 C          62.6758   90.4984   10.7939 C.3     1  UNL1        0.0285
     31 C          62.5377   89.5957   11.9840 C.3     1  UNL1        0.1289
@<TRIPOS>BOND
     1    30    31    1
     2    31    21    1
     3    21    22   ar
     4    22    23   ar
     5    23    26    1
     6    26    27    1
     7    26    28    1
     8    26    29    1
     9    23    24   ar
    10    24    25   ar
    11    25    19    1
    12    19     1    1
    13     1     2   ar
    14     2     3   ar
    15     3     6    1
    16     6     7   ar
    17     7     8   ar
    18     8     9   ar
    19     9    13    1
    20    13    14   ar
    21    14    15   ar
    22    15    16   ar
    23    16    17    1
    24    16    18   ar
    25     9    10   ar
    26    10    11    1
    27    10    12   ar
    28     3     4   ar
    29     4     5   ar
    30    25    21   ar
    31     5     1   ar
    32    12     6   ar
    33    18    13   ar
    34    19    20    1
@<TRIPOS>MOLECULE
*****
 31 34 0 0 0
SMALL
GASTEIGER

@<TRIPOS>ATOM
      1 C          62.8888   86.5879   16.0762 C.ar    1  UNL1        0.1646
      2 N          63.4844   87.3057   14.9014 N.ar    1  UNL1       -0.2239
      3 C          63.7018   88.7369   15.2942 C.ar    1  UNL1        0.0898
      4 C          63.2406   88.9037   16.7117 C.ar    1  UNL1        0.0572
      5 S          62.7381   87.5756   17.1951 S.2     1  UNL1       -0.0509
      6 C          64.2791   89.8125   14.4224 C.ar    1  UNL1        0.0206
      7 C          63.5864   90.1984   13.1492 C.ar    1  UNL1        0.0032
      8 C          64.1637   91.2740   12.2776 C.ar    1  UNL1        0.0199
      9 C          65.4337   91.9637   12.6792 C.ar    1  UNL1        0.0929
     10 C          66.1265   91.5778   13.9524 C.ar    1  UNL1        0.1562
     11 F          67.3966   92.2675   14.3539 F       1  UNL1       -0.2026
     12 C          65.5492   90.5022   14.8240 C.ar    1  UNL1        0.0327
     13 N          66.0110   93.0393   11.8074 N.ar    1  UNL1       -0.2846
     14 C          66.2336   94.4693   12.2021 C.ar    1  UNL1        0.1826
     15 N          66.8272   95.1876   11.0267 N.ar    1  UNL1       -0.2280
     16 C          66.9716   94.2015    9.9055 C.ar    1  UNL1        0.0786
     17 C          67.5234   94.4921    8.5413 C.3     1  UNL1        0.0538
     18 C          66.4671   92.8738   10.3881 C.ar    1  UNL1        0.0963
     19 N          62.5104   85.1372   16.1238 N.pl3   1  UNL1       -0.2784
     20 H          61.8952   84.8116   16.8200 H       1  UNL1        0.1555
     21 N          64.5233   83.9595   14.8176 N.ar    1  UNL1       -0.2380
     22 N          64.6249   82.9226   13.7384 N.ar    1  UNL1       -0.1726
     23 C          63.2335   82.5051   13.3645 C.ar    1  UNL1        0.0807
     24 C          62.2721   83.2838   14.2125 C.ar    1  UNL1        0.0505
     25 C          63.0692   84.1827   15.1106 C.ar    1  UNL1        0.1317
     26 C          62.8679   81.4874   12.3250 C.3     1  UNL1        0.0372
     27 C          63.4789   82.3526   11.2629 C.3     1  UNL1        0.0060
     28 C          62.2569   80.6221   13.3870 C.3     1  UNL1        0.0060
     29 C          62.5022   80.4696   11.2855 C.3     1  UNL1        0.0060
     30 C          66.4958   85.6478   14.7234 C.3     1  UNL1        0.0285
     31 C          65.6738   84.6517   15.4863 C.3     1  UNL1        0.1289
@<TRIPOS>BOND
     1    30    31    1
     2    31    21    1
     3    21    22   ar
     4    22    23   ar
     5    23    26    1
     6    26    27    1
     7    26    28    1
     8    26    29    1
     9    23    24   ar
    10    24    25   ar
    11    25    19    1
    12    19     1    1
    13     1     2   ar
    14     2     3   ar
    15     3     6    1
    16     6     7   ar
    17     7     8   ar
    18     8     9   ar
    19     9    13    1
    20    13    14   ar
    21    14    15   ar
    22    15    16   ar
    23    16    17    1
    24    16    18   ar
    25     9    10   ar
    26    10    11    1
    27    10    12   ar
    28     3     4   ar
    29     4     5   ar
    30    25    21   ar
    31     5     1   ar
    32    12     6   ar
    33    18    13   ar
    34    19    20    1
