@<TRIPOS>MOLECULE
*****
 39 44 0 0 0
SMALL
GASTEIGER

@<TRIPOS>ATOM
      1 C          59.4970   88.9436    7.0755 C.ar    1  UNL1        0.1205
      2 N          59.7847   87.5958    6.4834 N.ar    1  UNL1       -0.2313
      3 C          60.4580   86.7624    7.5332 C.ar    1  UNL1        0.0943
      4 C          60.9707   85.3529    7.5195 C.ar    1  UNL1       -0.0026
      5 C          60.8424   84.5201    6.2785 C.3     1  UNL1        0.0327
      6 C          61.6117   84.7760    8.7468 C.ar    1  UNL1        0.0003
      7 C          61.7401   85.6088    9.9878 C.ar    1  UNL1        0.0354
      8 C          61.2273   87.0183   10.0015 C.ar    1  UNL1        0.0217
      9 C          60.5863   87.5951    8.7742 C.ar    1  UNL1        0.0786
     10 N          59.9924   88.9432    8.4913 N.ar    1  UNL1       -0.3107
     11 C          62.3811   85.0319   11.2151 C.ar    1  UNL1        0.1439
     12 N          62.1570   85.4907   12.6255 N.ar    1  UNL1       -0.2268
     13 C          62.9962   84.6373   13.5295 C.ar    1  UNL1        0.0987
     14 C          63.1800   84.6308   15.0182 C.ar    1  UNL1        0.0206
     15 C          64.1067   83.6380   15.6552 C.ar    1  UNL1        0.0016
     16 C          64.8495   82.6518   14.8036 C.ar    1  UNL1        0.0016
     17 C          64.6657   82.6582   13.3149 C.ar    1  UNL1        0.0188
     18 C          63.7391   83.6509   12.6779 C.ar    1  UNL1        0.0789
     19 N          63.3590   83.8948   11.2475 N.ar    1  UNL1       -0.3094
     20 C          63.8674   83.1351   10.0583 C.3     1  UNL1        0.1319
     21 C          58.8308   90.0905    6.3748 C.3     1  UNL1        0.0640
     22 C          58.8980   91.9900    4.6035 C.3     1  UNL1        0.0005
     23 C          59.5718   90.8574    5.3199 C.3     1  UNL1        0.0079
     24 C          59.9086   90.0896    9.4551 C.3     1  UNL1        0.1339
     25 C          61.0818   90.4226   10.3283 C.ar    1  UNL1        0.0004
     26 C          60.9752   90.2727   11.8170 C.ar    1  UNL1       -0.0024
     27 C          62.1484   90.6058   12.6903 C.ar    1  UNL1       -0.0003
     28 C          63.4283   91.0888   12.0748 C.ar    1  UNL1        0.0000
     29 C          63.5348   91.2388   10.5861 C.ar    1  UNL1       -0.0003
     30 C          62.3616   90.9057    9.7129 C.ar    1  UNL1       -0.0024
     31 C          64.6015   91.4219   12.9481 C.ar    1  UNL1        0.0011
     32 C          65.5134   92.5545   12.5793 C.ar    1  UNL1        0.0000
     33 C          66.6866   92.8876   13.4525 C.ar    1  UNL1        0.0000
     34 C          66.9479   92.0881   14.6946 C.ar    1  UNL1        0.0000
     35 C          66.0361   90.9556   15.0634 C.ar    1  UNL1        0.0011
     36 C          64.8628   90.6225   14.1901 C.ar    1  UNL1        0.0140
     37 C          63.9510   89.4901   14.5588 C.2     1  UNL1        0.0729
     38 O          64.0994   88.1579   13.8856 O.co2   1  UNL1       -0.5446
     39 O          62.8905   89.6899   15.6007 O.co2   1  UNL1       -0.5446
@<TRIPOS>UNITY_ATOM_ATTR
38 1
charge -1
@<TRIPOS>BOND
     1    22    23    1
     2    23    21    1
     3    21     1    1
     4     1     2   ar
     5     2     3   ar
     6     3     4   ar
     7     4     5    1
     8     4     6   ar
     9     6     7   ar
    10     7    11    1
    11    11    12   ar
    12    12    13   ar
    13    13    14   ar
    14    14    15   ar
    15    15    16   ar
    16    16    17   ar
    17    17    18   ar
    18    18    19   ar
    19    19    20    1
    20     7     8   ar
    21     8     9   ar
    22     9    10   ar
    23    10    24    1
    24    24    25    1
    25    25    26   ar
    26    26    27   ar
    27    27    28   ar
    28    28    31    1
    29    31    32   ar
    30    32    33   ar
    31    33    34   ar
    32    34    35   ar
    33    35    36   ar
    34    36    37    1
    35    37    38   ar
    36    37    39   ar
    37    28    29   ar
    38    29    30   ar
    39    10     1   ar
    40    30    25   ar
    41     9     3   ar
    42    36    31   ar
    43    19    11   ar
    44    18    13   ar
@<TRIPOS>MOLECULE
*****
 39 44 0 0 0
SMALL
GASTEIGER

@<TRIPOS>ATOM
      1 C          62.5049   83.4404   14.7823 C.ar    1  UNL1        0.1205
      2 N          62.4692   84.0857   16.1359 N.ar    1  UNL1       -0.2313
      3 C          62.9755   85.4905   15.9933 C.ar    1  UNL1        0.0943
      4 C          63.1641   86.5954   16.9901 C.ar    1  UNL1       -0.0026
      5 C          62.8156   86.3724   18.4319 C.3     1  UNL1        0.0327
      6 C          63.7012   87.9233   16.5450 C.ar    1  UNL1        0.0003
      7 C          64.0497   88.1462   15.1032 C.ar    1  UNL1        0.0354
      8 C          63.8611   87.0413   14.1064 C.ar    1  UNL1        0.0217
      9 C          63.3240   85.7134   14.5515 C.ar    1  UNL1        0.0786
     10 N          63.0331   84.4464   13.8031 N.ar    1  UNL1       -0.3107
     11 C          64.5869   89.4742   14.6581 C.ar    1  UNL1        0.1439
     12 N          65.5199   90.3536   15.4366 N.ar    1  UNL1       -0.2268
     13 C          65.7950   91.5788   14.6160 C.ar    1  UNL1        0.0987
     14 C          66.6417   92.7899   14.8734 C.ar    1  UNL1        0.0206
     15 C          66.7253   93.8788   13.8451 C.ar    1  UNL1        0.0016
     16 C          65.9623   93.7566   12.5595 C.ar    1  UNL1        0.0016
     17 C          65.1156   92.5454   12.3021 C.ar    1  UNL1        0.0188
     18 C          65.0319   91.4566   13.3303 C.ar    1  UNL1        0.0789
     19 N          64.2853   90.1559   13.3564 N.ar    1  UNL1       -0.3094
     20 C          63.3936   89.6293   12.2712 C.3     1  UNL1        0.1319
     21 C          62.0858   82.0358   14.4638 C.3     1  UNL1        0.0640
     22 C          62.8251   80.5228   12.4854 C.3     1  UNL1        0.0005
     23 C          63.0689   81.0792   13.8568 C.3     1  UNL1        0.0079
     24 C          63.2351   84.2245   12.3334 C.3     1  UNL1        0.1339
     25 C          62.5159   85.0866   11.3388 C.ar    1  UNL1        0.0004
     26 C          61.4279   86.0123   11.7968 C.ar    1  UNL1       -0.0024
     27 C          60.7087   86.8746   10.8023 C.ar    1  UNL1       -0.0003
     28 C          61.0773   86.8112    9.3496 C.ar    1  UNL1        0.0000
     29 C          62.1652   85.8856    8.8916 C.ar    1  UNL1       -0.0003
     30 C          62.8844   85.0233    9.8862 C.ar    1  UNL1       -0.0024
     31 C          60.3581   87.6734    8.3551 C.ar    1  UNL1        0.0011
     32 C          59.6082   87.0426    7.2193 C.ar    1  UNL1        0.0000
     33 C          58.8889   87.9049    6.2247 C.ar    1  UNL1        0.0000
     34 C          58.9195   89.3979    6.3660 C.ar    1  UNL1        0.0000
     35 C          59.6693   90.0287    7.5017 C.ar    1  UNL1        0.0011
     36 C          60.3886   89.1664    8.4962 C.ar    1  UNL1        0.0140
     37 C          61.1384   89.7971    9.6320 C.2     1  UNL1        0.0729
     38 O          62.6357   89.8773    9.5895 O.co2   1  UNL1       -0.5446
     39 O          60.3909   90.3477   10.8102 O.co2   1  UNL1       -0.5446
@<TRIPOS>UNITY_ATOM_ATTR
38 1
charge -1
@<TRIPOS>BOND
     1    22    23    1
     2    23    21    1
     3    21     1    1
     4     1     2   ar
     5     2     3   ar
     6     3     4   ar
     7     4     5    1
     8     4     6   ar
     9     6     7   ar
    10     7    11    1
    11    11    12   ar
    12    12    13   ar
    13    13    14   ar
    14    14    15   ar
    15    15    16   ar
    16    16    17   ar
    17    17    18   ar
    18    18    19   ar
    19    19    20    1
    20     7     8   ar
    21     8     9   ar
    22     9    10   ar
    23    10    24    1
    24    24    25    1
    25    25    26   ar
    26    26    27   ar
    27    27    28   ar
    28    28    31    1
    29    31    32   ar
    30    32    33   ar
    31    33    34   ar
    32    34    35   ar
    33    35    36   ar
    34    36    37    1
    35    37    38   ar
    36    37    39   ar
    37    28    29   ar
    38    29    30   ar
    39    10     1   ar
    40    30    25   ar
    41     9     3   ar
    42    36    31   ar
    43    19    11   ar
    44    18    13   ar
@<TRIPOS>MOLECULE
*****
 39 44 0 0 0
SMALL
GASTEIGER

@<TRIPOS>ATOM
      1 C          62.4436   83.4432   14.6899 C.ar    1  UNL1        0.1205
      2 N          62.4968   84.0941   16.0403 N.ar    1  UNL1       -0.2313
      3 C          62.9961   85.4969   15.8594 C.ar    1  UNL1        0.0943
      4 C          63.2512   86.6053   16.8373 C.ar    1  UNL1       -0.0026
      5 C          62.9959   86.3891   18.2995 C.3     1  UNL1        0.0327
      6 C          63.7617   87.9300   16.3529 C.ar    1  UNL1        0.0003
      7 C          64.0171   88.1462   14.8907 C.ar    1  UNL1        0.0354
      8 C          63.7620   87.0378   13.9129 C.ar    1  UNL1        0.0217
      9 C          63.2515   85.7131   14.3972 C.ar    1  UNL1        0.0786
     10 N          62.9100   84.4439   13.6744 N.ar    1  UNL1       -0.3107
     11 C          64.5276   89.4709   14.4064 C.ar    1  UNL1        0.1439
     12 N          65.4899   90.3638   15.1321 N.ar    1  UNL1       -0.2268
     13 C          65.7224   91.5800   14.2855 C.ar    1  UNL1        0.0987
     14 C          66.5738   92.7979   14.4906 C.ar    1  UNL1        0.0206
     15 C          66.6066   93.8745   13.4465 C.ar    1  UNL1        0.0016
     16 C          65.7880   93.7333   12.1976 C.ar    1  UNL1        0.0016
     17 C          64.9366   92.5154   11.9926 C.ar    1  UNL1        0.0188
     18 C          64.9038   91.4388   13.0365 C.ar    1  UNL1        0.0789
     19 N          64.1654   90.1353   13.1112 N.ar    1  UNL1       -0.3094
     20 C          63.2291   89.5917   12.0730 C.3     1  UNL1        0.1319
     21 C          62.0015   82.0384   14.4050 C.3     1  UNL1        0.0640
     22 C          62.7157   80.4873   12.4470 C.3     1  UNL1        0.0005
     23 C          62.9662   81.0541   13.8130 C.3     1  UNL1        0.0079
     24 C          63.0162   84.2154   12.1958 C.3     1  UNL1        0.1339
     25 C          62.3959   85.1906   11.2397 C.ar    1  UNL1        0.0004
     26 C          62.8604   85.2421    9.8142 C.ar    1  UNL1       -0.0024
     27 C          62.2400   86.2173    8.8581 C.ar    1  UNL1       -0.0003
     28 C          61.1552   87.1409    9.3273 C.ar    1  UNL1        0.0000
     29 C          60.6908   87.0894   10.7526 C.ar    1  UNL1       -0.0003
     30 C          61.3111   86.1142   11.7088 C.ar    1  UNL1       -0.0024
     31 C          60.5349   88.1161    8.3711 C.ar    1  UNL1        0.0011
     32 C          60.9182   89.5654    8.4240 C.ar    1  UNL1        0.0000
     33 C          60.2979   90.5406    7.4678 C.ar    1  UNL1        0.0000
     34 C          59.2943   90.0664    6.4588 C.ar    1  UNL1        0.0000
     35 C          58.9111   88.6172    6.4059 C.ar    1  UNL1        0.0011
     36 C          59.5314   87.6420    7.3621 C.ar    1  UNL1        0.0140
     37 C          59.1482   86.1928    7.3094 C.2     1  UNL1        0.0729
     38 O          57.7791   85.7625    7.7459 O.co2   1  UNL1       -0.5446
     39 O          60.1341   85.1737    6.8200 O.co2   1  UNL1       -0.5446
@<TRIPOS>UNITY_ATOM_ATTR
38 1
charge -1
@<TRIPOS>BOND
     1    22    23    1
     2    23    21    1
     3    21     1    1
     4     1     2   ar
     5     2     3   ar
     6     3     4   ar
     7     4     5    1
     8     4     6   ar
     9     6     7   ar
    10     7    11    1
    11    11    12   ar
    12    12    13   ar
    13    13    14   ar
    14    14    15   ar
    15    15    16   ar
    16    16    17   ar
    17    17    18   ar
    18    18    19   ar
    19    19    20    1
    20     7     8   ar
    21     8     9   ar
    22     9    10   ar
    23    10    24    1
    24    24    25    1
    25    25    26   ar
    26    26    27   ar
    27    27    28   ar
    28    28    31    1
    29    31    32   ar
    30    32    33   ar
    31    33    34   ar
    32    34    35   ar
    33    35    36   ar
    34    36    37    1
    35    37    38   ar
    36    37    39   ar
    37    28    29   ar
    38    29    30   ar
    39    10     1   ar
    40    30    25   ar
    41     9     3   ar
    42    36    31   ar
    43    19    11   ar
    44    18    13   ar
@<TRIPOS>MOLECULE
*****
 39 44 0 0 0
SMALL
GASTEIGER

@<TRIPOS>ATOM
      1 C          60.1399   87.8513    8.8016 C.ar    1  UNL1        0.1205
      2 N          59.4027   89.0196    9.3859 N.ar    1  UNL1       -0.2313
      3 C          60.3373   89.7424   10.3101 C.ar    1  UNL1        0.0943
      4 C          60.1610   90.9644   11.1618 C.ar    1  UNL1       -0.0026
      5 C          58.8460   91.6860   11.1750 C.3     1  UNL1        0.0327
      6 C          61.2995   91.4647   12.0004 C.ar    1  UNL1        0.0003
      7 C          62.6145   90.7431   11.9872 C.ar    1  UNL1        0.0354
      8 C          62.7908   89.5211   11.1354 C.ar    1  UNL1        0.0217
      9 C          61.6523   89.0207   10.2969 C.ar    1  UNL1        0.0786
     10 N          61.5302   87.8520    9.3646 N.ar    1  UNL1       -0.3107
     11 C          63.7531   91.2435   12.8258 C.ar    1  UNL1        0.1439
     12 N          63.8730   91.1169   14.3156 N.ar    1  UNL1       -0.2268
     13 C          65.1657   91.7535   14.7324 C.ar    1  UNL1        0.0987
     14 C          65.8122   91.9269   16.0748 C.ar    1  UNL1        0.0206
     15 C          67.1378   92.6203   16.1848 C.ar    1  UNL1        0.0016
     16 C          67.8168   93.1403   14.9526 C.ar    1  UNL1        0.0016
     17 C          67.1702   92.9670   13.6102 C.ar    1  UNL1        0.0188
     18 C          65.8447   92.2736   13.5001 C.ar    1  UNL1        0.0789
     19 N          64.9717   91.9584   12.3218 N.ar    1  UNL1       -0.3094
     20 C          65.2656   92.2983   10.8907 C.3     1  UNL1        0.1319
     21 C          59.5843   86.8568    7.8256 C.3     1  UNL1        0.0640
     22 C          61.0495   85.1091    6.5812 C.3     1  UNL1        0.0005
     23 C          60.1732   85.4799    7.7407 C.3     1  UNL1        0.0079
     24 C          62.6092   86.8584    9.0504 C.3     1  UNL1        0.1339
     25 C          62.7076   85.5845    9.8362 C.ar    1  UNL1        0.0004
     26 C          63.5214   84.4396    9.3099 C.ar    1  UNL1       -0.0024
     27 C          63.6200   83.1657   10.0957 C.ar    1  UNL1       -0.0003
     28 C          62.9046   83.0367   11.4078 C.ar    1  UNL1        0.0000
     29 C          62.0908   84.1815   11.9341 C.ar    1  UNL1       -0.0003
     30 C          61.9923   85.4555   11.1484 C.ar    1  UNL1       -0.0024
     31 C          63.0031   81.7628   12.1936 C.ar    1  UNL1        0.0011
     32 C          62.6640   80.4534   11.5450 C.ar    1  UNL1        0.0000
     33 C          62.7625   79.1794   12.3308 C.ar    1  UNL1        0.0000
     34 C          63.2001   79.2150   13.7651 C.ar    1  UNL1        0.0000
     35 C          63.5391   80.5243   14.4137 C.ar    1  UNL1        0.0011
     36 C          63.4406   81.7982   13.6279 C.ar    1  UNL1        0.0140
     37 C          63.7797   83.1076   14.2764 C.2     1  UNL1        0.0729
     38 O          65.0200   83.8469   13.8701 O.co2   1  UNL1       -0.5446
     39 O          62.8783   83.6776   15.3312 O.co2   1  UNL1       -0.5446
@<TRIPOS>UNITY_ATOM_ATTR
38 1
charge -1
@<TRIPOS>BOND
     1    22    23    1
     2    23    21    1
     3    21     1    1
     4     1     2   ar
     5     2     3   ar
     6     3     4   ar
     7     4     5    1
     8     4     6   ar
     9     6     7   ar
    10     7    11    1
    11    11    12   ar
    12    12    13   ar
    13    13    14   ar
    14    14    15   ar
    15    15    16   ar
    16    16    17   ar
    17    17    18   ar
    18    18    19   ar
    19    19    20    1
    20     7     8   ar
    21     8     9   ar
    22     9    10   ar
    23    10    24    1
    24    24    25    1
    25    25    26   ar
    26    26    27   ar
    27    27    28   ar
    28    28    31    1
    29    31    32   ar
    30    32    33   ar
    31    33    34   ar
    32    34    35   ar
    33    35    36   ar
    34    36    37    1
    35    37    38   ar
    36    37    39   ar
    37    28    29   ar
    38    29    30   ar
    39    10     1   ar
    40    30    25   ar
    41     9     3   ar
    42    36    31   ar
    43    19    11   ar
    44    18    13   ar
@<TRIPOS>MOLECULE
*****
 39 44 0 0 0
SMALL
GASTEIGER

@<TRIPOS>ATOM
      1 C          62.0773   95.1441   -3.7304 C.ar    1  UNL1        0.1205
      2 N          61.6046   94.6490   -5.0651 N.ar    1  UNL1       -0.2313
      3 C          60.1113   94.7842   -5.1073 C.ar    1  UNL1        0.0943
      4 C          59.1033   94.4552   -6.1683 C.ar    1  UNL1       -0.0026
      5 C          59.5535   93.8764   -7.4768 C.3     1  UNL1        0.0327
      6 C          57.6452   94.7049   -5.9206 C.ar    1  UNL1        0.0003
      7 C          57.1950   95.2837   -4.6121 C.ar    1  UNL1        0.0354
      8 C          58.2030   95.6127   -3.5511 C.ar    1  UNL1        0.0217
      9 C          59.6611   95.3630   -3.7988 C.ar    1  UNL1        0.0786
     10 N          60.8762   95.5854   -2.9478 N.ar    1  UNL1       -0.3107
     11 C          55.7367   95.5334   -4.3645 C.ar    1  UNL1        0.1439
     12 N          54.7339   95.9848   -5.3845 N.ar    1  UNL1       -0.2268
     13 C          53.4027   96.1059   -4.7038 C.ar    1  UNL1        0.0987
     14 C          52.0498   96.5105   -5.2097 C.ar    1  UNL1        0.0206
     15 C          50.8770   96.5384   -4.2748 C.ar    1  UNL1        0.0016
     16 C          51.0572   96.1618   -2.8342 C.ar    1  UNL1        0.0016
     17 C          52.4101   95.7572   -2.3282 C.ar    1  UNL1        0.0188
     18 C          53.5829   95.7293   -3.2630 C.ar    1  UNL1        0.0789
     19 N          55.0254   95.3754   -3.0533 N.ar    1  UNL1       -0.3094
     20 C          55.6473   94.9401   -1.7596 C.3     1  UNL1        0.1319
     21 C          63.5012   95.1899   -3.2608 C.3     1  UNL1        0.0640
     22 C          64.5072   94.7940   -0.8984 C.3     1  UNL1        0.0005
     23 C          63.9678   94.2508   -2.1884 C.3     1  UNL1        0.0079
     24 C          60.8880   96.1500   -1.5582 C.3     1  UNL1        0.1339
     25 C          60.7155   95.2409   -0.3777 C.ar    1  UNL1        0.0004
     26 C          60.6767   95.8115    1.0091 C.ar    1  UNL1       -0.0024
     27 C          60.5041   94.9024    2.1896 C.ar    1  UNL1       -0.0003
     28 C          60.3704   93.4226    1.9834 C.ar    1  UNL1        0.0000
     29 C          60.4092   92.8521    0.5968 C.ar    1  UNL1       -0.0003
     30 C          60.5818   93.7612   -0.5838 C.ar    1  UNL1       -0.0024
     31 C          60.1979   92.5135    3.1640 C.ar    1  UNL1        0.0011
     32 C          58.8481   92.3577    3.7997 C.ar    1  UNL1        0.0000
     33 C          58.6756   91.4486    4.9803 C.ar    1  UNL1        0.0000
     34 C          59.8528   90.6953    5.5251 C.ar    1  UNL1        0.0000
     35 C          61.2024   90.8510    4.8894 C.ar    1  UNL1        0.0011
     36 C          61.3750   91.7602    3.7089 C.ar    1  UNL1        0.0140
     37 C          62.7246   91.9160    3.0731 C.2     1  UNL1        0.0729
     38 O          63.6275   90.7269    2.9289 O.co2   1  UNL1       -0.5446
     39 O          63.1712   93.2609    2.5816 O.co2   1  UNL1       -0.5446
@<TRIPOS>UNITY_ATOM_ATTR
38 1
charge -1
@<TRIPOS>BOND
     1    22    23    1
     2    23    21    1
     3    21     1    1
     4     1     2   ar
     5     2     3   ar
     6     3     4   ar
     7     4     5    1
     8     4     6   ar
     9     6     7   ar
    10     7    11    1
    11    11    12   ar
    12    12    13   ar
    13    13    14   ar
    14    14    15   ar
    15    15    16   ar
    16    16    17   ar
    17    17    18   ar
    18    18    19   ar
    19    19    20    1
    20     7     8   ar
    21     8     9   ar
    22     9    10   ar
    23    10    24    1
    24    24    25    1
    25    25    26   ar
    26    26    27   ar
    27    27    28   ar
    28    28    31    1
    29    31    32   ar
    30    32    33   ar
    31    33    34   ar
    32    34    35   ar
    33    35    36   ar
    34    36    37    1
    35    37    38   ar
    36    37    39   ar
    37    28    29   ar
    38    29    30   ar
    39    10     1   ar
    40    30    25   ar
    41     9     3   ar
    42    36    31   ar
    43    19    11   ar
    44    18    13   ar
