@<TRIPOS>MOLECULE
*****
 26 29 0 0 0
SMALL
GASTEIGER

@<TRIPOS>ATOM
      1 O          60.7790   88.8297    8.7400 O.2     1  UNL1       -0.2749
      2 C          61.3381   88.4753   10.0861 C.2     1  UNL1        0.2260
      3 N          62.3160   89.3935   10.7574 N.am    1  UNL1       -0.2793
      4 C          62.7348   90.6660   10.0828 C.3     1  UNL1        0.0970
      5 C          63.7127   91.5841   10.7541 C.3     1  UNL1        0.0615
      6 C          64.2717   91.2297   12.1002 C.3     1  UNL1        0.1367
      7 C          64.6906   92.5023   11.4255 C.3     1  UNL1        0.0449
      8 C          65.6685   93.4204   12.0969 C.3     1  UNL1        0.0331
      9 C          66.2276   93.0660   13.4429 C.ar    1  UNL1        0.0141
     10 C          67.2055   93.9842   14.1143 C.ar    1  UNL1        0.0284
     11 C          67.7645   93.6298   15.4603 C.ar    1  UNL1        0.1400
     12 F          68.7424   94.5479   16.1317 F       1  UNL1       -0.2042
     13 C          67.3457   92.3572   16.1350 C.ar    1  UNL1        0.0327
     14 C          66.3678   91.4391   15.4636 C.ar    1  UNL1        0.0389
     15 C          65.8087   91.7935   14.1176 C.ar    1  UNL1        0.1343
     16 O          64.8308   90.8753   13.4462 O.3     1  UNL1       -0.4828
     17 C          63.8529   89.9572   12.7749 C.3     1  UNL1        0.0615
     18 C          62.8750   89.0391   12.1035 C.3     1  UNL1        0.0970
     19 C          60.9192   87.2028   10.7608 C.3     1  UNL1        0.0899
     20 C          61.2941   85.8788   10.1637 C.3     1  UNL1        0.0359
     21 C          62.3576   85.0397   10.8077 C.ar    1  UNL1       -0.0217
     22 C          63.2253   84.1522    9.9655 C.ar    1  UNL1       -0.0043
     23 C          64.2888   83.3131   10.6096 C.ar    1  UNL1       -0.0003
     24 C          64.4846   83.3615   12.0960 C.ar    1  UNL1       -0.0000
     25 C          63.6169   84.2491   12.9383 C.ar    1  UNL1       -0.0003
     26 C          62.5534   85.0882   12.2941 C.ar    1  UNL1       -0.0043
@<TRIPOS>BOND
     1     1     2    2
     2     2    19    1
     3    19    20    1
     4    20    21    1
     5    21    22   ar
     6    22    23   ar
     7    23    24   ar
     8    24    25   ar
     9    25    26   ar
    10     2     3   am
    11     3     4    1
    12     4     5    1
    13     5     6    1
    14     6     7    1
    15     7     8    1
    16     8     9    1
    17     9    10   ar
    18    10    11   ar
    19    11    12    1
    20    11    13   ar
    21    13    14   ar
    22    14    15   ar
    23    15    16    1
    24     6    17    1
    25    17    18    1
    26    26    21   ar
    27    18     3    1
    28    16     6    1
    29    15     9   ar
@<TRIPOS>MOLECULE
*****
 26 29 0 0 0
SMALL
GASTEIGER

@<TRIPOS>ATOM
      1 O          60.6968   89.6075    8.4515 O.2     1  UNL1       -0.2749
      2 C          61.0337   89.2808    9.8762 C.2     1  UNL1        0.2260
      3 N          62.1049   90.0517   10.5892 N.am    1  UNL1       -0.2793
      4 C          62.8392   91.1491    9.8776 C.3     1  UNL1        0.0970
      5 C          63.9103   91.9198   10.5906 C.3     1  UNL1        0.0615
      6 C          64.2473   91.5932   12.0153 C.3     1  UNL1        0.1367
      7 C          64.9816   92.6907   11.3036 C.3     1  UNL1        0.0449
      8 C          66.0528   93.4614   12.0167 C.3     1  UNL1        0.0331
      9 C          66.3897   93.1348   13.4414 C.ar    1  UNL1        0.0141
     10 C          67.4609   93.9056   14.1544 C.ar    1  UNL1        0.0284
     11 C          67.7978   93.5790   15.5791 C.ar    1  UNL1        0.1400
     12 F          68.8690   94.3497   16.2922 F       1  UNL1       -0.2042
     13 C          67.0635   92.4815   16.2908 C.ar    1  UNL1        0.0327
     14 C          65.9923   91.7108   15.5778 C.ar    1  UNL1        0.0389
     15 C          65.6554   92.0374   14.1531 C.ar    1  UNL1        0.1343
     16 O          64.5842   91.2666   13.4400 O.3     1  UNL1       -0.4828
     17 C          63.5130   90.4958   12.7270 C.3     1  UNL1        0.0615
     18 C          62.4418   89.7250   12.0140 C.3     1  UNL1        0.0970
     19 C          60.2994   88.1834   10.5879 C.3     1  UNL1        0.0899
     20 C          59.8335   86.9770    9.8278 C.3     1  UNL1        0.0359
     21 C          60.7873   86.2371    8.9375 C.ar    1  UNL1       -0.0217
     22 C          60.3587   85.8189    7.5623 C.ar    1  UNL1       -0.0043
     23 C          61.3125   85.0789    6.6720 C.ar    1  UNL1       -0.0003
     24 C          62.6950   84.7571    7.1569 C.ar    1  UNL1       -0.0000
     25 C          63.1237   85.1753    8.5322 C.ar    1  UNL1       -0.0003
     26 C          62.1698   85.9153    9.4225 C.ar    1  UNL1       -0.0043
@<TRIPOS>BOND
     1     1     2    2
     2     2    19    1
     3    19    20    1
     4    20    21    1
     5    21    22   ar
     6    22    23   ar
     7    23    24   ar
     8    24    25   ar
     9    25    26   ar
    10     2     3   am
    11     3     4    1
    12     4     5    1
    13     5     6    1
    14     6     7    1
    15     7     8    1
    16     8     9    1
    17     9    10   ar
    18    10    11   ar
    19    11    12    1
    20    11    13   ar
    21    13    14   ar
    22    14    15   ar
    23    15    16    1
    24     6    17    1
    25    17    18    1
    26    26    21   ar
    27    18     3    1
    28    16     6    1
    29    15     9   ar
@<TRIPOS>MOLECULE
*****
 26 29 0 0 0
SMALL
GASTEIGER

@<TRIPOS>ATOM
      1 O          63.5361   91.6037   13.1135 O.2     1  UNL1       -0.2749
      2 C          63.9335   90.4770   14.0204 C.2     1  UNL1        0.2260
      3 N          63.7012   89.0566   13.5980 N.am    1  UNL1       -0.2793
      4 C          63.0714   88.7629   12.2687 C.3     1  UNL1        0.0970
      5 C          62.8391   87.3425   11.8463 C.3     1  UNL1        0.0615
      6 C          63.2365   86.2158   12.7532 C.3     1  UNL1        0.1367
      7 C          62.6067   85.9220   11.4238 C.3     1  UNL1        0.0449
      8 C          62.3744   84.5016   11.0015 C.3     1  UNL1        0.0331
      9 C          62.7718   83.3749   11.9084 C.ar    1  UNL1        0.0141
     10 C          62.5395   81.9544   11.4860 C.ar    1  UNL1        0.0284
     11 C          62.9369   80.8277   12.3929 C.ar    1  UNL1        0.1400
     12 F          62.7046   79.4073   11.9706 F       1  UNL1       -0.2042
     13 C          63.5667   81.1214   13.7223 C.ar    1  UNL1        0.0327
     14 C          63.7990   82.5418   14.1447 C.ar    1  UNL1        0.0389
     15 C          63.4016   83.6686   13.2377 C.ar    1  UNL1        0.1343
     16 O          63.6339   85.0890   13.6602 O.3     1  UNL1       -0.4828
     17 C          63.8663   86.5094   14.0826 C.3     1  UNL1        0.0615
     18 C          64.0986   87.9298   14.5049 C.3     1  UNL1        0.0970
     19 C          64.5633   90.7707   15.3497 C.3     1  UNL1        0.0899
     20 C          65.2139   92.1000   15.5942 C.3     1  UNL1        0.0359
     21 C          66.6651   92.2958   15.2692 C.ar    1  UNL1       -0.0217
     22 C          67.2283   91.7470   13.9918 C.ar    1  UNL1       -0.0043
     23 C          68.6795   91.9427   13.6668 C.ar    1  UNL1       -0.0003
     24 C          69.5676   92.6873   14.6192 C.ar    1  UNL1       -0.0000
     25 C          69.0044   93.2361   15.8966 C.ar    1  UNL1       -0.0003
     26 C          67.5531   93.0403   16.2215 C.ar    1  UNL1       -0.0043
@<TRIPOS>BOND
     1     1     2    2
     2     2    19    1
     3    19    20    1
     4    20    21    1
     5    21    22   ar
     6    22    23   ar
     7    23    24   ar
     8    24    25   ar
     9    25    26   ar
    10     2     3   am
    11     3     4    1
    12     4     5    1
    13     5     6    1
    14     6     7    1
    15     7     8    1
    16     8     9    1
    17     9    10   ar
    18    10    11   ar
    19    11    12    1
    20    11    13   ar
    21    13    14   ar
    22    14    15   ar
    23    15    16    1
    24     6    17    1
    25    17    18    1
    26    26    21   ar
    27    18     3    1
    28    16     6    1
    29    15     9   ar
@<TRIPOS>MOLECULE
*****
 26 29 0 0 0
SMALL
GASTEIGER

@<TRIPOS>ATOM
      1 O          65.0058   92.3079   14.3961 O.2     1  UNL1       -0.2749
      2 C          64.4383   91.4667   13.2914 C.2     1  UNL1        0.2260
      3 N          64.2422   89.9936   13.4956 N.am    1  UNL1       -0.2793
      4 C          64.6135   89.3618   14.8043 C.3     1  UNL1        0.0970
      5 C          64.4173   87.8888   15.0084 C.3     1  UNL1        0.0615
      6 C          63.8499   87.0476   13.9037 C.3     1  UNL1        0.1367
      7 C          64.2212   86.4157   15.2126 C.3     1  UNL1        0.0449
      8 C          64.0251   84.9427   15.4166 C.3     1  UNL1        0.0331
      9 C          63.4576   84.1015   14.3120 C.ar    1  UNL1        0.0141
     10 C          63.2614   82.6284   14.5161 C.ar    1  UNL1        0.0284
     11 C          62.6940   81.7872   13.4114 C.ar    1  UNL1        0.1400
     12 F          62.4978   80.3141   13.6155 F       1  UNL1       -0.2042
     13 C          62.3226   82.4190   12.1026 C.ar    1  UNL1        0.0327
     14 C          62.5188   83.8920   11.8985 C.ar    1  UNL1        0.0389
     15 C          63.0862   84.7333   13.0032 C.ar    1  UNL1        0.1343
     16 O          63.2824   86.2064   12.7991 O.3     1  UNL1       -0.4828
     17 C          63.4785   87.6794   12.5950 C.3     1  UNL1        0.0615
     18 C          63.6747   89.1524   12.3909 C.3     1  UNL1        0.0970
     19 C          64.0670   92.0985   11.9827 C.3     1  UNL1        0.0899
     20 C          64.9984   91.9995   10.8110 C.3     1  UNL1        0.0359
     21 C          65.8639   93.1670   10.4401 C.ar    1  UNL1       -0.0217
     22 C          65.4507   94.5578   10.8210 C.ar    1  UNL1       -0.0043
     23 C          66.3162   95.7254   10.4501 C.ar    1  UNL1       -0.0003
     24 C          67.5950   95.5022    9.6983 C.ar    1  UNL1       -0.0000
     25 C          68.0081   94.1115    9.3174 C.ar    1  UNL1       -0.0003
     26 C          67.1425   92.9439    9.6884 C.ar    1  UNL1       -0.0043
@<TRIPOS>BOND
     1     1     2    2
     2     2    19    1
     3    19    20    1
     4    20    21    1
     5    21    22   ar
     6    22    23   ar
     7    23    24   ar
     8    24    25   ar
     9    25    26   ar
    10     2     3   am
    11     3     4    1
    12     4     5    1
    13     5     6    1
    14     6     7    1
    15     7     8    1
    16     8     9    1
    17     9    10   ar
    18    10    11   ar
    19    11    12    1
    20    11    13   ar
    21    13    14   ar
    22    14    15   ar
    23    15    16    1
    24     6    17    1
    25    17    18    1
    26    26    21   ar
    27    18     3    1
    28    16     6    1
    29    15     9   ar
@<TRIPOS>MOLECULE
*****
 26 29 0 0 0
SMALL
GASTEIGER

@<TRIPOS>ATOM
      1 O          63.3425   88.3854   17.1987 O.2     1  UNL1       -0.2749
      2 C          63.7118   88.0905   15.7751 C.2     1  UNL1        0.2260
      3 N          63.4953   86.7165   15.2133 N.am    1  UNL1       -0.2793
      4 C          62.9097   85.6376   16.0752 C.3     1  UNL1        0.0970
      5 C          62.6933   84.2637   15.5134 C.3     1  UNL1        0.0615
      6 C          63.0625   83.9688   14.0898 C.3     1  UNL1        0.1367
      7 C          62.4769   82.8897   14.9517 C.3     1  UNL1        0.0449
      8 C          62.2605   81.5159   14.3899 C.3     1  UNL1        0.0331
      9 C          62.6297   81.2210   12.9663 C.ar    1  UNL1        0.0141
     10 C          62.4133   79.8470   12.4046 C.ar    1  UNL1        0.0284
     11 C          62.7825   79.5521   10.9810 C.ar    1  UNL1        0.1400
     12 F          62.5662   78.1782   10.4192 F       1  UNL1       -0.2042
     13 C          63.3682   80.6311   10.1191 C.ar    1  UNL1        0.0327
     14 C          63.5846   82.0050   10.6809 C.ar    1  UNL1        0.0389
     15 C          63.2154   82.2999   12.1045 C.ar    1  UNL1        0.1343
     16 O          63.4318   83.6739   12.6662 O.3     1  UNL1       -0.4828
     17 C          63.6482   85.0477   13.2280 C.3     1  UNL1        0.0615
     18 C          63.8646   86.4216   13.7897 C.3     1  UNL1        0.0970
     19 C          64.2974   89.1694   14.9132 C.3     1  UNL1        0.0899
     20 C          63.3959   90.1465   14.2185 C.3     1  UNL1        0.0359
     21 C          63.8891   90.9003   13.0192 C.ar    1  UNL1       -0.0217
     22 C          65.0939   91.7866   13.1337 C.ar    1  UNL1       -0.0043
     23 C          65.5872   92.5403   11.9343 C.ar    1  UNL1       -0.0003
     24 C          64.8757   92.4079   10.6204 C.ar    1  UNL1       -0.0000
     25 C          63.6709   91.5216   10.5059 C.ar    1  UNL1       -0.0003
     26 C          63.1776   90.7678   11.7053 C.ar    1  UNL1       -0.0043
@<TRIPOS>BOND
     1     1     2    2
     2     2    19    1
     3    19    20    1
     4    20    21    1
     5    21    22   ar
     6    22    23   ar
     7    23    24   ar
     8    24    25   ar
     9    25    26   ar
    10     2     3   am
    11     3     4    1
    12     4     5    1
    13     5     6    1
    14     6     7    1
    15     7     8    1
    16     8     9    1
    17     9    10   ar
    18    10    11   ar
    19    11    12    1
    20    11    13   ar
    21    13    14   ar
    22    14    15   ar
    23    15    16    1
    24     6    17    1
    25    17    18    1
    26    26    21   ar
    27    18     3    1
    28    16     6    1
    29    15     9   ar
@<TRIPOS>MOLECULE
*****
 26 29 0 0 0
SMALL
GASTEIGER

@<TRIPOS>ATOM
      1 O          62.8776   91.7129   10.0494 O.2     1  UNL1       -0.2749
      2 C          63.3741   91.0789   11.3149 C.2     1  UNL1        0.2260
      3 N          63.2185   89.6018   11.5250 N.am    1  UNL1       -0.2793
      4 C          62.5664   88.7587   10.4695 C.3     1  UNL1        0.0970
      5 C          62.4108   87.2817   10.6796 C.3     1  UNL1        0.0615
      6 C          62.9074   86.6477   11.9451 C.3     1  UNL1        0.1367
      7 C          62.2552   85.8046   10.8896 C.3     1  UNL1        0.0449
      8 C          62.0997   84.3276   11.0996 C.3     1  UNL1        0.0331
      9 C          62.5962   83.6936   12.3651 C.ar    1  UNL1        0.0141
     10 C          62.4406   82.2165   12.5752 C.ar    1  UNL1        0.0284
     11 C          62.9371   81.5825   13.8407 C.ar    1  UNL1        0.1400
     12 F          62.7815   80.1055   14.0507 F       1  UNL1       -0.2042
     13 C          63.5892   82.4256   14.8962 C.ar    1  UNL1        0.0327
     14 C          63.7448   83.9026   14.6861 C.ar    1  UNL1        0.0389
     15 C          63.2483   84.5366   13.4206 C.ar    1  UNL1        0.1343
     16 O          63.4039   86.0137   13.2106 O.3     1  UNL1       -0.4828
     17 C          63.5595   87.4908   13.0005 C.3     1  UNL1        0.0615
     18 C          63.7150   88.9678   12.7905 C.3     1  UNL1        0.0970
     19 C          64.0262   91.9219   12.3704 C.3     1  UNL1        0.0899
     20 C          65.5184   92.0733   12.3934 C.3     1  UNL1        0.0359
     21 C          66.2055   92.8928   11.3416 C.ar    1  UNL1       -0.0217
     22 C          67.2582   92.2693   10.4739 C.ar    1  UNL1       -0.0043
     23 C          67.9453   93.0887    9.4221 C.ar    1  UNL1       -0.0003
     24 C          67.5795   94.5318    9.2379 C.ar    1  UNL1       -0.0000
     25 C          66.5268   95.1553   10.1056 C.ar    1  UNL1       -0.0003
     26 C          65.8397   94.3358   11.1575 C.ar    1  UNL1       -0.0043
@<TRIPOS>BOND
     1     1     2    2
     2     2    19    1
     3    19    20    1
     4    20    21    1
     5    21    22   ar
     6    22    23   ar
     7    23    24   ar
     8    24    25   ar
     9    25    26   ar
    10     2     3   am
    11     3     4    1
    12     4     5    1
    13     5     6    1
    14     6     7    1
    15     7     8    1
    16     8     9    1
    17     9    10   ar
    18    10    11   ar
    19    11    12    1
    20    11    13   ar
    21    13    14   ar
    22    14    15   ar
    23    15    16    1
    24     6    17    1
    25    17    18    1
    26    26    21   ar
    27    18     3    1
    28    16     6    1
    29    15     9   ar
@<TRIPOS>MOLECULE
*****
 26 29 0 0 0
SMALL
GASTEIGER

@<TRIPOS>ATOM
      1 O          63.2265   80.7984   14.2389 O.2     1  UNL1       -0.2749
      2 C          63.7855   81.9661   13.4812 C.2     1  UNL1        0.2260
      3 N          63.7268   83.3426   14.0745 N.am    1  UNL1       -0.2793
      4 C          63.1091   83.5514   15.4254 C.3     1  UNL1        0.0970
      5 C          63.0505   84.9278   16.0185 C.3     1  UNL1        0.0615
      6 C          63.6095   86.0955   15.2609 C.3     1  UNL1        0.1367
      7 C          62.9918   86.3043   16.6118 C.3     1  UNL1        0.0449
      8 C          62.9332   87.6807   17.2050 C.3     1  UNL1        0.0331
      9 C          63.4921   88.8484   16.4473 C.ar    1  UNL1        0.0141
     10 C          63.4335   90.2249   17.0406 C.ar    1  UNL1        0.0284
     11 C          63.9925   91.3926   16.2829 C.ar    1  UNL1        0.1400
     12 F          63.9338   92.7690   16.8761 F       1  UNL1       -0.2042
     13 C          64.6101   91.1838   14.9320 C.ar    1  UNL1        0.0327
     14 C          64.6688   89.8073   14.3388 C.ar    1  UNL1        0.0389
     15 C          64.1098   88.6397   15.0965 C.ar    1  UNL1        0.1343
     16 O          64.1685   87.2632   14.5032 O.3     1  UNL1       -0.4828
     17 C          64.2271   85.8867   13.9100 C.3     1  UNL1        0.0615
     18 C          64.2858   84.5103   13.3168 C.3     1  UNL1        0.0970
     19 C          64.4031   81.7574   12.1303 C.3     1  UNL1        0.0899
     20 C          63.5706   81.9153   10.8925 C.3     1  UNL1        0.0359
     21 C          63.1621   83.2835   10.4330 C.ar    1  UNL1       -0.0217
     22 C          63.7271   83.8481    9.1633 C.ar    1  UNL1       -0.0043
     23 C          63.3185   85.2162    8.7038 C.ar    1  UNL1       -0.0003
     24 C          62.3449   86.0199    9.5140 C.ar    1  UNL1       -0.0000
     25 C          61.7799   85.4553   10.7836 C.ar    1  UNL1       -0.0003
     26 C          62.1885   84.0870   11.2431 C.ar    1  UNL1       -0.0043
@<TRIPOS>BOND
     1     1     2    2
     2     2    19    1
     3    19    20    1
     4    20    21    1
     5    21    22   ar
     6    22    23   ar
     7    23    24   ar
     8    24    25   ar
     9    25    26   ar
    10     2     3   am
    11     3     4    1
    12     4     5    1
    13     5     6    1
    14     6     7    1
    15     7     8    1
    16     8     9    1
    17     9    10   ar
    18    10    11   ar
    19    11    12    1
    20    11    13   ar
    21    13    14   ar
    22    14    15   ar
    23    15    16    1
    24     6    17    1
    25    17    18    1
    26    26    21   ar
    27    18     3    1
    28    16     6    1
    29    15     9   ar
@<TRIPOS>MOLECULE
*****
 26 29 0 0 0
SMALL
GASTEIGER

@<TRIPOS>ATOM
      1 O          65.1012   86.0241   15.6671 O.2     1  UNL1       -0.2749
      2 C          64.1680   85.2927   14.7483 C.2     1  UNL1        0.2260
      3 N          63.5001   86.0230   13.6210 N.am    1  UNL1       -0.2793
      4 C          63.7654   87.4845   13.4125 C.3     1  UNL1        0.0970
      5 C          63.0975   88.2146   12.2852 C.3     1  UNL1        0.0615
      6 C          62.1643   87.4832   11.3664 C.3     1  UNL1        0.1367
      7 C          62.4296   88.9448   11.1579 C.3     1  UNL1        0.0449
      8 C          61.7618   89.6750   10.0306 C.3     1  UNL1        0.0331
      9 C          60.8286   88.9436    9.1118 C.ar    1  UNL1        0.0141
     10 C          60.1607   89.6738    7.9845 C.ar    1  UNL1        0.0284
     11 C          59.2275   88.9424    7.0657 C.ar    1  UNL1        0.1400
     12 F          58.5596   89.6726    5.9384 F       1  UNL1       -0.2042
     13 C          58.9622   87.4808    7.2742 C.ar    1  UNL1        0.0327
     14 C          59.6300   86.7507    8.4015 C.ar    1  UNL1        0.0389
     15 C          60.5632   87.4821    9.3203 C.ar    1  UNL1        0.1343
     16 O          61.2311   86.7518   10.4476 O.3     1  UNL1       -0.4828
     17 C          61.8990   86.0217   11.5749 C.3     1  UNL1        0.0615
     18 C          62.5669   85.2916   12.7021 C.3     1  UNL1        0.0970
     19 C          63.9026   83.8312   14.9567 C.3     1  UNL1        0.0899
     20 C          64.7072   82.8089   14.2100 C.3     1  UNL1        0.0359
     21 C          64.1731   82.2156   12.9401 C.ar    1  UNL1       -0.0217
     22 C          63.2747   81.0155   12.9927 C.ar    1  UNL1       -0.0043
     23 C          62.7406   80.4223   11.7228 C.ar    1  UNL1       -0.0003
     24 C          63.1048   81.0291   10.4002 C.ar    1  UNL1       -0.0000
     25 C          64.0032   82.2291   10.3476 C.ar    1  UNL1       -0.0003
     26 C          64.5373   82.8224   11.6176 C.ar    1  UNL1       -0.0043
@<TRIPOS>BOND
     1     1     2    2
     2     2    19    1
     3    19    20    1
     4    20    21    1
     5    21    22   ar
     6    22    23   ar
     7    23    24   ar
     8    24    25   ar
     9    25    26   ar
    10     2     3   am
    11     3     4    1
    12     4     5    1
    13     5     6    1
    14     6     7    1
    15     7     8    1
    16     8     9    1
    17     9    10   ar
    18    10    11   ar
    19    11    12    1
    20    11    13   ar
    21    13    14   ar
    22    14    15   ar
    23    15    16    1
    24     6    17    1
    25    17    18    1
    26    26    21   ar
    27    18     3    1
    28    16     6    1
    29    15     9   ar
@<TRIPOS>MOLECULE
*****
 26 29 0 0 0
SMALL
GASTEIGER

@<TRIPOS>ATOM
      1 O          60.8182   86.9272    8.9425 O.2     1  UNL1       -0.2749
      2 C          61.5263   86.7895   10.2576 C.2     1  UNL1        0.2260
      3 N          62.3240   87.9365   10.8036 N.am    1  UNL1       -0.2793
      4 C          62.4137   89.2211   10.0345 C.3     1  UNL1        0.0970
      5 C          63.2114   90.3680   10.5805 C.3     1  UNL1        0.0615
      6 C          63.9195   90.2303   11.8956 C.3     1  UNL1        0.1367
      7 C          64.0092   91.5150   11.1265 C.3     1  UNL1        0.0449
      8 C          64.8069   92.6619   11.6725 C.3     1  UNL1        0.0331
      9 C          65.5150   92.5242   12.9876 C.ar    1  UNL1        0.0141
     10 C          66.3128   93.6712   13.5336 C.ar    1  UNL1        0.0284
     11 C          67.0208   93.5335   14.8488 C.ar    1  UNL1        0.1400
     12 F          67.8186   94.6804   15.3948 F       1  UNL1       -0.2042
     13 C          66.9312   92.2488   15.6180 C.ar    1  UNL1        0.0327
     14 C          66.1334   91.1019   15.0720 C.ar    1  UNL1        0.0389
     15 C          65.4254   91.2396   13.7568 C.ar    1  UNL1        0.1343
     16 O          64.6276   90.0926   13.2108 O.3     1  UNL1       -0.4828
     17 C          63.8299   88.9457   12.6648 C.3     1  UNL1        0.0615
     18 C          63.0321   87.7988   12.1188 C.3     1  UNL1        0.0970
     19 C          61.4366   85.5048   11.0268 C.3     1  UNL1        0.0899
     20 C          62.6628   84.6648   11.2294 C.3     1  UNL1        0.0359
     21 C          62.6191   83.4847   12.1543 C.ar    1  UNL1       -0.0217
     22 C          62.8833   82.1065   11.6246 C.ar    1  UNL1       -0.0043
     23 C          62.8396   80.9264   12.5495 C.ar    1  UNL1       -0.0003
     24 C          62.5316   81.1246   14.0041 C.ar    1  UNL1       -0.0000
     25 C          62.2673   82.5028   14.5338 C.ar    1  UNL1       -0.0003
     26 C          62.3110   83.6829   13.6088 C.ar    1  UNL1       -0.0043
@<TRIPOS>BOND
     1     1     2    2
     2     2    19    1
     3    19    20    1
     4    20    21    1
     5    21    22   ar
     6    22    23   ar
     7    23    24   ar
     8    24    25   ar
     9    25    26   ar
    10     2     3   am
    11     3     4    1
    12     4     5    1
    13     5     6    1
    14     6     7    1
    15     7     8    1
    16     8     9    1
    17     9    10   ar
    18    10    11   ar
    19    11    12    1
    20    11    13   ar
    21    13    14   ar
    22    14    15   ar
    23    15    16    1
    24     6    17    1
    25    17    18    1
    26    26    21   ar
    27    18     3    1
    28    16     6    1
    29    15     9   ar
