@<TRIPOS>MOLECULE
*****
 33 37 0 0 0
SMALL
GASTEIGER

@<TRIPOS>ATOM
      1 C          64.8270   84.4425   15.3333 C.3     1  UNL1        0.2320
      2 C          63.9895   88.3100   15.0320 C.ar    1  UNL1       -0.0002
      3 C          63.1935   88.5261   16.2848 C.ar    1  UNL1       -0.0000
      4 C          62.9420   87.3810   17.2205 C.ar    1  UNL1       -0.0002
      5 C          63.4865   86.0199   16.9033 C.ar    1  UNL1       -0.0007
      6 C          64.2825   85.8037   15.6505 C.ar    1  UNL1        0.0212
      7 C          64.5340   86.9488   14.7148 C.ar    1  UNL1       -0.0007
      8 C          65.5540   91.6108   13.4804 C.ar    1  UNL1        0.0246
      9 C          65.3024   90.4657   14.4160 C.ar    1  UNL1        0.0020
     10 C          64.2410   89.4551   14.0963 C.ar    1  UNL1        0.0001
     11 C          63.4312   89.5897   12.8409 C.ar    1  UNL1        0.0009
     12 C          63.6827   90.7348   11.9053 C.ar    1  UNL1        0.0114
     13 C          64.7441   91.7454   12.2251 C.ar    1  UNL1        0.0587
     14 CL         64.9956   92.8905   11.2894 Cl      1  UNL1       -0.0822
     15 O          68.0528   92.3218   13.4936 O.co2   1  UNL1       -0.5446
     16 C          66.6154   92.6213   13.8002 C.2     1  UNL1        0.0737
     17 O          66.2393   93.9314   14.4265 O.co2   1  UNL1       -0.5446
     18 O          64.0536   83.5136   14.4452 O.3     1  UNL1       -0.4706
     19 C          63.6470   83.9553   13.0705 C.ar    1  UNL1        0.1396
     20 C          64.2695   83.3188   11.8634 C.ar    1  UNL1        0.0371
     21 C          63.8629   83.7605   10.4888 C.ar    1  UNL1        0.0084
     22 C          62.8337   84.8388   10.3214 C.ar    1  UNL1        0.0642
     23 C          62.2377   85.4768    9.1016 C.ar    1  UNL1        0.2669
     24 O          62.5737   85.1426    7.6784 O.2     1  UNL1       -0.2664
     25 N          61.2468   86.5076    9.5549 N.ar    1  UNL1       -0.2681
     26 S          61.2304   86.5067   11.0548 S.2     1  UNL1       -0.0068
     27 C          62.2111   85.4754   11.5285 C.ar    1  UNL1        0.0534
     28 C          62.6178   85.0336   12.9031 C.ar    1  UNL1        0.0449
     29 C          60.4178   87.3852    8.6646 C.3     1  UNL1        0.0956
     30 C          59.3976   86.9184    7.6689 C.3     1  UNL1        0.0233
     31 C          58.8128   88.1285    7.0027 C.3     1  UNL1        0.0020
     32 C          59.4716   89.3430    7.5865 C.3     1  UNL1        0.0020
     33 C          60.4636   88.8836    8.6137 C.3     1  UNL1        0.0233
@<TRIPOS>UNITY_ATOM_ATTR
15 1
charge -1
@<TRIPOS>BOND
     1    15    16   ar
     2    16    17   ar
     3    16     8    1
     4     8     9   ar
     5     9    10   ar
     6    10     2    1
     7     2     3   ar
     8     3     4   ar
     9     4     5   ar
    10     5     6   ar
    11     6     1    1
    12     1    18    1
    13    18    19    1
    14    19    20   ar
    15    20    21   ar
    16    21    22   ar
    17    22    23   ar
    18    23    24    2
    19    23    25   ar
    20    25    29    1
    21    29    30    1
    22    30    31    1
    23    31    32    1
    24    32    33    1
    25    25    26   ar
    26    26    27   ar
    27    27    28   ar
    28     6     7   ar
    29    10    11   ar
    30    11    12   ar
    31    12    13   ar
    32    13    14    1
    33    13     8   ar
    34     7     2   ar
    35    28    19   ar
    36    27    22   ar
    37    33    29    1
@<TRIPOS>MOLECULE
*****
 33 37 0 0 0
SMALL
GASTEIGER

@<TRIPOS>ATOM
      1 C          60.1915   89.7288    9.8096 C.3     1  UNL1        0.2320
      2 C          61.5237   86.0093    9.4347 C.ar    1  UNL1       -0.0002
      3 C          60.8957   85.6133    8.1314 C.ar    1  UNL1       -0.0000
      4 C          60.0329   86.5890    7.3875 C.ar    1  UNL1       -0.0002
      5 C          59.7982   87.9608    7.9469 C.ar    1  UNL1       -0.0007
      6 C          60.4262   88.3569    9.2502 C.ar    1  UNL1        0.0212
      7 C          61.2890   87.3811    9.9942 C.ar    1  UNL1       -0.0007
      8 C          63.1645   83.9696   12.4176 C.ar    1  UNL1        0.0246
      9 C          62.3018   84.9454   11.6737 C.ar    1  UNL1        0.0020
     10 C          62.3866   85.0335   10.1787 C.ar    1  UNL1        0.0001
     11 C          63.3341   84.1458    9.4276 C.ar    1  UNL1        0.0009
     12 C          64.1968   83.1700   10.1715 C.ar    1  UNL1        0.0114
     13 C          64.1121   83.0820   11.6665 C.ar    1  UNL1        0.0587
     14 CL         64.9749   82.1061   12.4104 Cl      1  UNL1       -0.0822
     15 O          62.0872   82.9581   14.5544 O.co2   1  UNL1       -0.5446
     16 C          63.0798   83.8815   13.9126 C.2     1  UNL1        0.0737
     17 O          63.9876   84.7169   14.7658 O.co2   1  UNL1       -0.5446
     18 O          60.6588   90.0639   11.1950 O.3     1  UNL1       -0.4706
     19 C          62.0178   90.6637   11.4036 C.ar    1  UNL1        0.1396
     20 C          62.7754   91.2280   10.2385 C.ar    1  UNL1        0.0371
     21 C          64.1344   91.8277   10.4471 C.ar    1  UNL1        0.0084
     22 C          64.7357   91.8631   11.8208 C.ar    1  UNL1        0.0642
     23 C          66.0463   92.3862   12.3296 C.ar    1  UNL1        0.2669
     24 O          67.1166   93.0362   11.5037 O.2     1  UNL1       -0.2664
     25 N          66.0986   92.1452   13.8091 N.ar    1  UNL1       -0.2681
     26 S          64.8204   91.4731   14.2148 S.2     1  UNL1       -0.0068
     27 C          63.9781   91.2987   12.9859 C.ar    1  UNL1        0.0534
     28 C          62.6192   90.6990   12.7773 C.ar    1  UNL1        0.0449
     29 C          67.2305   92.5118   14.7227 C.3     1  UNL1        0.0956
     30 C          68.1093   91.5509   15.4673 C.3     1  UNL1        0.0233
     31 C          69.1041   92.3491   16.2569 C.3     1  UNL1        0.0020
     32 C          68.8401   93.8031   16.0003 C.3     1  UNL1        0.0020
     33 C          67.6820   93.9037   15.0521 C.3     1  UNL1        0.0233
@<TRIPOS>UNITY_ATOM_ATTR
15 1
charge -1
@<TRIPOS>BOND
     1    15    16   ar
     2    16    17   ar
     3    16     8    1
     4     8     9   ar
     5     9    10   ar
     6    10     2    1
     7     2     3   ar
     8     3     4   ar
     9     4     5   ar
    10     5     6   ar
    11     6     1    1
    12     1    18    1
    13    18    19    1
    14    19    20   ar
    15    20    21   ar
    16    21    22   ar
    17    22    23   ar
    18    23    24    2
    19    23    25   ar
    20    25    29    1
    21    29    30    1
    22    30    31    1
    23    31    32    1
    24    32    33    1
    25    25    26   ar
    26    26    27   ar
    27    27    28   ar
    28     6     7   ar
    29    10    11   ar
    30    11    12   ar
    31    12    13   ar
    32    13    14    1
    33    13     8   ar
    34     7     2   ar
    35    28    19   ar
    36    27    22   ar
    37    33    29    1
@<TRIPOS>MOLECULE
*****
 33 37 0 0 0
SMALL
GASTEIGER

@<TRIPOS>ATOM
      1 C          64.8071   84.2040   15.2969 C.3     1  UNL1        0.2320
      2 C          63.9969   88.0883   15.2213 C.ar    1  UNL1       -0.0002
      3 C          63.1812   88.2321   16.4718 C.ar    1  UNL1       -0.0000
      4 C          62.9074   87.0333   17.3307 C.ar    1  UNL1       -0.0002
      5 C          63.4494   85.6906   16.9391 C.ar    1  UNL1       -0.0007
      6 C          64.2651   85.5467   15.6886 C.ar    1  UNL1        0.0212
      7 C          64.5389   86.7456   14.8296 C.ar    1  UNL1       -0.0007
      8 C          63.7010   90.7484   12.2910 C.ar    1  UNL1        0.0246
      9 C          63.4273   89.5495   13.1499 C.ar    1  UNL1        0.0020
     10 C          64.2707   89.2872   14.3623 C.ar    1  UNL1        0.0001
     11 C          65.3878   90.2237   14.7158 C.ar    1  UNL1        0.0009
     12 C          65.6615   91.4226   13.8569 C.ar    1  UNL1        0.0114
     13 C          64.8181   91.6849   12.6445 C.ar    1  UNL1        0.0587
     14 CL         65.0919   92.8838   11.7856 Cl      1  UNL1       -0.0822
     15 O          61.3637   90.9100   11.1682 O.co2   1  UNL1       -0.5446
     16 C          62.8576   91.0107   11.0786 C.2     1  UNL1        0.0737
     17 O          63.5082   91.3738    9.7768 O.co2   1  UNL1       -0.5446
     18 O          64.0172   83.3135   14.3843 O.3     1  UNL1       -0.4706
     19 C          63.6293   83.7949   13.0176 C.ar    1  UNL1        0.1396
     20 C          64.2734   83.1982   11.8014 C.ar    1  UNL1        0.0371
     21 C          63.8855   83.6797   10.4348 C.ar    1  UNL1        0.0084
     22 C          62.8535   84.7579   10.2843 C.ar    1  UNL1        0.0642
     23 C          62.2729   85.4299    9.0754 C.ar    1  UNL1        0.2669
     24 O          62.6321   85.1406    7.6481 O.2     1  UNL1       -0.2664
     25 N          61.2701   86.4419    9.5445 N.ar    1  UNL1       -0.2681
     26 S          61.2309   86.3953   11.0433 S.2     1  UNL1       -0.0068
     27 C          62.2095   85.3546   11.5005 C.ar    1  UNL1        0.0534
     28 C          62.5974   84.8731   12.8671 C.ar    1  UNL1        0.0449
     29 C          60.4503   87.3424    8.6686 C.3     1  UNL1        0.0956
     30 C          60.5286   88.8397    8.6248 C.3     1  UNL1        0.0233
     31 C          59.5349   89.3263    7.6119 C.3     1  UNL1        0.0020
     32 C          58.8427   88.1297    7.0297 C.3     1  UNL1        0.0020
     33 C          59.4084   86.9035    7.6828 C.3     1  UNL1        0.0233
@<TRIPOS>UNITY_ATOM_ATTR
15 1
charge -1
@<TRIPOS>BOND
     1    15    16   ar
     2    16    17   ar
     3    16     8    1
     4     8     9   ar
     5     9    10   ar
     6    10     2    1
     7     2     3   ar
     8     3     4   ar
     9     4     5   ar
    10     5     6   ar
    11     6     1    1
    12     1    18    1
    13    18    19    1
    14    19    20   ar
    15    20    21   ar
    16    21    22   ar
    17    22    23   ar
    18    23    24    2
    19    23    25   ar
    20    25    29    1
    21    29    30    1
    22    30    31    1
    23    31    32    1
    24    32    33    1
    25    25    26   ar
    26    26    27   ar
    27    27    28   ar
    28     6     7   ar
    29    10    11   ar
    30    11    12   ar
    31    12    13   ar
    32    13    14    1
    33    13     8   ar
    34     7     2   ar
    35    28    19   ar
    36    27    22   ar
    37    33    29    1
@<TRIPOS>MOLECULE
*****
 33 37 0 0 0
SMALL
GASTEIGER

@<TRIPOS>ATOM
      1 C          59.8588   87.9992    9.6112 C.3     1  UNL1        0.2320
      2 C          62.4206   85.2317   10.8471 C.ar    1  UNL1       -0.0002
      3 C          63.0165   84.7940    9.5420 C.ar    1  UNL1       -0.0000
      4 C          62.5598   85.4247    8.2599 C.ar    1  UNL1       -0.0002
      5 C          61.5073   86.4931    8.2830 C.ar    1  UNL1       -0.0007
      6 C          60.9114   86.9308    9.5882 C.ar    1  UNL1        0.0212
      7 C          61.3680   86.3001   10.8702 C.ar    1  UNL1       -0.0007
      8 C          62.9245   82.5659   13.7436 C.ar    1  UNL1        0.0246
      9 C          62.4678   83.1967   12.4617 C.ar    1  UNL1        0.0020
     10 C          62.8773   84.6009   12.1291 C.ar    1  UNL1        0.0001
     11 C          63.7435   85.3743   13.0786 C.ar    1  UNL1        0.0009
     12 C          64.2002   84.7435   14.3606 C.ar    1  UNL1        0.0114
     13 C          63.7907   83.3393   14.6931 C.ar    1  UNL1        0.0587
     14 CL         64.2474   82.7085   15.9752 Cl      1  UNL1       -0.0822
     15 O          61.0607   80.8084   14.1761 O.co2   1  UNL1       -0.5446
     16 C          62.5150   81.1617   14.0762 C.2     1  UNL1        0.0737
     17 O          63.5598   80.1109   14.3087 O.co2   1  UNL1       -0.5446
     18 O          59.9162   89.0865   10.6429 O.3     1  UNL1       -0.4706
     19 C          61.2006   89.8222   10.8865 C.ar    1  UNL1        0.1396
     20 C          61.8544   90.5801    9.7693 C.ar    1  UNL1        0.0371
     21 C          63.1387   91.3156   10.0130 C.ar    1  UNL1        0.0084
     22 C          63.7693   91.2933   11.3738 C.ar    1  UNL1        0.0642
     23 C          65.0229   91.9192   11.9096 C.ar    1  UNL1        0.2669
     24 O          65.9862   92.7672   11.1333 O.2     1  UNL1       -0.2664
     25 N          65.1438   91.5480   13.3579 N.ar    1  UNL1       -0.2681
     26 S          63.9650   90.6928   13.7172 S.2     1  UNL1       -0.0068
     27 C          63.1156   90.5354   12.4910 C.ar    1  UNL1        0.0534
     28 C          61.8312   89.7998   12.2473 C.ar    1  UNL1        0.0449
     29 C          66.2494   91.9598   14.2843 C.3     1  UNL1        0.0956
     30 C          67.7155   91.9486   13.9671 C.3     1  UNL1        0.0233
     31 C          68.4551   92.4369   15.1773 C.3     1  UNL1        0.0020
     32 C          67.4462   92.7499   16.2423 C.3     1  UNL1        0.0020
     33 C          66.0829   92.4550   15.6902 C.3     1  UNL1        0.0233
@<TRIPOS>UNITY_ATOM_ATTR
15 1
charge -1
@<TRIPOS>BOND
     1    15    16   ar
     2    16    17   ar
     3    16     8    1
     4     8     9   ar
     5     9    10   ar
     6    10     2    1
     7     2     3   ar
     8     3     4   ar
     9     4     5   ar
    10     5     6   ar
    11     6     1    1
    12     1    18    1
    13    18    19    1
    14    19    20   ar
    15    20    21   ar
    16    21    22   ar
    17    22    23   ar
    18    23    24    2
    19    23    25   ar
    20    25    29    1
    21    29    30    1
    22    30    31    1
    23    31    32    1
    24    32    33    1
    25    25    26   ar
    26    26    27   ar
    27    27    28   ar
    28     6     7   ar
    29    10    11   ar
    30    11    12   ar
    31    12    13   ar
    32    13    14    1
    33    13     8   ar
    34     7     2   ar
    35    28    19   ar
    36    27    22   ar
    37    33    29    1
@<TRIPOS>MOLECULE
*****
 33 37 0 0 0
SMALL
GASTEIGER

@<TRIPOS>ATOM
      1 C          62.4112   83.4615   14.8930 C.3     1  UNL1        0.2320
      2 C          62.5059   84.9077   11.1985 C.ar    1  UNL1       -0.0002
      3 C          63.5726   84.0496   10.5854 C.ar    1  UNL1       -0.0000
      4 C          64.2521   82.9955   11.4082 C.ar    1  UNL1       -0.0002
      5 C          63.8650   82.7995   12.8440 C.ar    1  UNL1       -0.0007
      6 C          62.7983   83.6576   13.4571 C.ar    1  UNL1        0.0212
      7 C          62.1188   84.7117   12.6343 C.ar    1  UNL1       -0.0007
      8 C          61.0756   88.4282   10.0536 C.ar    1  UNL1        0.0246
      9 C          61.7551   87.3740   10.8764 C.ar    1  UNL1        0.0020
     10 C          61.8263   85.9619   10.3757 C.ar    1  UNL1        0.0001
     11 C          61.2179   85.6038    9.0522 C.ar    1  UNL1        0.0009
     12 C          60.5384   86.6579    8.2294 C.ar    1  UNL1        0.0114
     13 C          60.4672   88.0701    8.7301 C.ar    1  UNL1        0.0587
     14 CL         59.7877   89.1243    7.9072 Cl      1  UNL1       -0.0822
     15 O          59.7555   90.3383   11.2192 O.co2   1  UNL1       -0.5446
     16 C          61.0045   89.8403   10.5543 C.2     1  UNL1        0.0737
     17 O          62.1823   90.7545   10.3901 O.co2   1  UNL1       -0.5446
     18 O          63.2136   84.1106   15.9815 O.3     1  UNL1       -0.4706
     19 C          63.3316   85.6050   16.0369 C.ar    1  UNL1        0.1396
     20 C          62.6404   86.3720   17.1249 C.ar    1  UNL1        0.0371
     21 C          62.7584   87.8663   17.1803 C.ar    1  UNL1        0.0084
     22 C          63.5677   88.5936   16.1478 C.ar    1  UNL1        0.0642
     23 C          63.8632   90.0505   15.9475 C.ar    1  UNL1        0.2669
     24 O          63.3712   91.1764   16.8079 O.2     1  UNL1       -0.2664
     25 N          64.7371   90.1839   14.7357 N.ar    1  UNL1       -0.2681
     26 S          64.9816   88.8094   14.1870 S.2     1  UNL1       -0.0068
     27 C          64.2589   87.8265   15.0598 C.ar    1  UNL1        0.0534
     28 C          64.1409   86.3322   15.0044 C.ar    1  UNL1        0.0449
     29 C          65.2725   91.4665   14.1715 C.3     1  UNL1        0.0956
     30 C          65.0373   91.9854   12.7838 C.3     1  UNL1        0.0233
     31 C          65.7565   93.2950   12.6507 C.3     1  UNL1        0.0020
     32 C          66.4361   93.5854   13.9559 C.3     1  UNL1        0.0020
     33 C          66.1369   92.4553   14.8959 C.3     1  UNL1        0.0233
@<TRIPOS>UNITY_ATOM_ATTR
15 1
charge -1
@<TRIPOS>BOND
     1    15    16   ar
     2    16    17   ar
     3    16     8    1
     4     8     9   ar
     5     9    10   ar
     6    10     2    1
     7     2     3   ar
     8     3     4   ar
     9     4     5   ar
    10     5     6   ar
    11     6     1    1
    12     1    18    1
    13    18    19    1
    14    19    20   ar
    15    20    21   ar
    16    21    22   ar
    17    22    23   ar
    18    23    24    2
    19    23    25   ar
    20    25    29    1
    21    29    30    1
    22    30    31    1
    23    31    32    1
    24    32    33    1
    25    25    26   ar
    26    26    27   ar
    27    27    28   ar
    28     6     7   ar
    29    10    11   ar
    30    11    12   ar
    31    12    13   ar
    32    13    14    1
    33    13     8   ar
    34     7     2   ar
    35    28    19   ar
    36    27    22   ar
    37    33    29    1
@<TRIPOS>MOLECULE
*****
 33 37 0 0 0
SMALL
GASTEIGER

@<TRIPOS>ATOM
      1 C          59.5932   87.2291    8.1336 C.3     1  UNL1        0.2320
      2 C          62.3031   85.0929   10.0939 C.ar    1  UNL1       -0.0002
      3 C          63.1116   84.5465    8.9547 C.ar    1  UNL1       -0.0000
      4 C          62.7473   84.8943    7.5418 C.ar    1  UNL1       -0.0002
      5 C          61.5745   85.7885    7.2681 C.ar    1  UNL1       -0.0007
      6 C          60.7660   86.3349    8.4074 C.ar    1  UNL1        0.0212
      7 C          61.1303   85.9871    9.8202 C.ar    1  UNL1       -0.0007
      8 C          62.7866   83.0110   13.4378 C.ar    1  UNL1        0.0246
      9 C          62.4223   83.3589   12.0250 C.ar    1  UNL1        0.0020
     10 C          62.6674   84.7450   11.5068 C.ar    1  UNL1        0.0001
     11 C          63.2768   85.7833   12.4016 C.ar    1  UNL1        0.0009
     12 C          63.6411   85.4354   13.8144 C.ar    1  UNL1        0.0114
     13 C          63.3960   84.0492   14.3326 C.ar    1  UNL1        0.0587
     14 CL         63.7603   83.7013   15.7455 Cl      1  UNL1       -0.0822
     15 O          63.7000   80.7216   14.2592 O.co2   1  UNL1       -0.5446
     16 C          62.5414   81.6248   13.9560 C.2     1  UNL1        0.0737
     17 O          61.1377   81.1418   14.1709 O.co2   1  UNL1       -0.5446
     18 O          59.6192   88.6594    8.5848 O.3     1  UNL1       -0.4706
     19 C          60.3762   89.0420    9.8220 C.ar    1  UNL1        0.1396
     20 C          59.8505   88.6553   11.1725 C.ar    1  UNL1        0.0371
     21 C          60.6076   89.0379   12.4096 C.ar    1  UNL1        0.0084
     22 C          61.8903   89.8072   12.2962 C.ar    1  UNL1        0.0642
     23 C          62.8479   90.3202   13.3306 C.ar    1  UNL1        0.2669
     24 O          62.7118   90.1579   14.8156 O.2     1  UNL1       -0.2664
     25 N          63.9653   91.0239   12.6193 N.ar    1  UNL1       -0.2681
     26 S          63.6984   90.9459   11.1453 S.2     1  UNL1       -0.0068
     27 C          62.4159   90.1939   10.9456 C.ar    1  UNL1        0.0534
     28 C          61.6589   89.8113    9.7085 C.ar    1  UNL1        0.0449
     29 C          65.1430   91.6890   13.2680 C.3     1  UNL1        0.0956
     30 C          65.8265   91.2404   14.5257 C.3     1  UNL1        0.0233
     31 C          66.9499   92.1936   14.8079 C.3     1  UNL1        0.0020
     32 C          66.9605   93.2312   13.7247 C.3     1  UNL1        0.0020
     33 C          65.8438   92.9193   12.7730 C.3     1  UNL1        0.0233
@<TRIPOS>UNITY_ATOM_ATTR
15 1
charge -1
@<TRIPOS>BOND
     1    15    16   ar
     2    16    17   ar
     3    16     8    1
     4     8     9   ar
     5     9    10   ar
     6    10     2    1
     7     2     3   ar
     8     3     4   ar
     9     4     5   ar
    10     5     6   ar
    11     6     1    1
    12     1    18    1
    13    18    19    1
    14    19    20   ar
    15    20    21   ar
    16    21    22   ar
    17    22    23   ar
    18    23    24    2
    19    23    25   ar
    20    25    29    1
    21    29    30    1
    22    30    31    1
    23    31    32    1
    24    32    33    1
    25    25    26   ar
    26    26    27   ar
    27    27    28   ar
    28     6     7   ar
    29    10    11   ar
    30    11    12   ar
    31    12    13   ar
    32    13    14    1
    33    13     8   ar
    34     7     2   ar
    35    28    19   ar
    36    27    22   ar
    37    33    29    1
@<TRIPOS>MOLECULE
*****
 33 37 0 0 0
SMALL
GASTEIGER

@<TRIPOS>ATOM
      1 C          63.8990   83.3666   15.1653 C.3     1  UNL1        0.2320
      2 C          62.9892   84.5952   11.5030 C.ar    1  UNL1       -0.0002
      3 C          63.5843   83.4927   10.6781 C.ar    1  UNL1       -0.0000
      4 C          64.2842   82.3482   11.3489 C.ar    1  UNL1       -0.0002
      5 C          64.3891   82.3062   12.8447 C.ar    1  UNL1       -0.0007
      6 C          63.7941   83.4087   13.6695 C.ar    1  UNL1        0.0212
      7 C          63.0941   84.5532   12.9987 C.ar    1  UNL1       -0.0007
      8 C          60.6542   86.6248    9.0172 C.ar    1  UNL1        0.0246
      9 C          61.3542   85.4803    9.6882 C.ar    1  UNL1        0.0020
     10 C          62.2892   85.7398   10.8320 C.ar    1  UNL1        0.0001
     11 C          62.5242   87.1437   11.3050 C.ar    1  UNL1        0.0009
     12 C          61.8242   88.2881   10.6341 C.ar    1  UNL1        0.0114
     13 C          60.8892   88.0287    9.4902 C.ar    1  UNL1        0.0587
     14 CL         60.1892   89.1732    8.8193 Cl      1  UNL1       -0.0822
     15 O          58.3684   87.0169    7.8462 O.co2   1  UNL1       -0.5446
     16 C          59.7192   86.3653    7.8733 C.2     1  UNL1        0.0737
     17 O          60.1350   85.4543    6.7566 O.co2   1  UNL1       -0.5446
     18 O          62.9752   84.1975   16.0056 O.3     1  UNL1       -0.4706
     19 C          63.1536   85.6855   16.0693 C.ar    1  UNL1        0.1396
     20 C          62.5436   86.4665   17.1953 C.ar    1  UNL1        0.0371
     21 C          62.7220   87.9545   17.2589 C.ar    1  UNL1        0.0084
     22 C          63.5105   88.6614   16.1966 C.ar    1  UNL1        0.0642
     23 C          63.8529   90.1081   15.9962 C.ar    1  UNL1        0.2669
     24 O          63.4452   91.2425   16.8889 O.2     1  UNL1       -0.2664
     25 N          64.6745   90.2211   14.7464 N.ar    1  UNL1       -0.2681
     26 S          64.8399   88.8443   14.1743 S.2     1  UNL1       -0.0068
     27 C          64.1205   87.8804   15.0706 C.ar    1  UNL1        0.0534
     28 C          63.9421   86.3925   15.0070 C.ar    1  UNL1        0.0449
     29 C          65.2328   91.4883   14.1698 C.3     1  UNL1        0.0956
     30 C          66.1021   92.4765   14.8895 C.3     1  UNL1        0.0233
     31 C          66.4263   93.5888   13.9367 C.3     1  UNL1        0.0020
     32 C          65.7574   93.2880   12.6282 C.3     1  UNL1        0.0020
     33 C          65.0198   91.9898   12.7723 C.3     1  UNL1        0.0233
@<TRIPOS>UNITY_ATOM_ATTR
15 1
charge -1
@<TRIPOS>BOND
     1    15    16   ar
     2    16    17   ar
     3    16     8    1
     4     8     9   ar
     5     9    10   ar
     6    10     2    1
     7     2     3   ar
     8     3     4   ar
     9     4     5   ar
    10     5     6   ar
    11     6     1    1
    12     1    18    1
    13    18    19    1
    14    19    20   ar
    15    20    21   ar
    16    21    22   ar
    17    22    23   ar
    18    23    24    2
    19    23    25   ar
    20    25    29    1
    21    29    30    1
    22    30    31    1
    23    31    32    1
    24    32    33    1
    25    25    26   ar
    26    26    27   ar
    27    27    28   ar
    28     6     7   ar
    29    10    11   ar
    30    11    12   ar
    31    12    13   ar
    32    13    14    1
    33    13     8   ar
    34     7     2   ar
    35    28    19   ar
    36    27    22   ar
    37    33    29    1
@<TRIPOS>MOLECULE
*****
 33 37 0 0 0
SMALL
GASTEIGER

@<TRIPOS>ATOM
      1 C          59.5085   87.1639    8.2750 C.3     1  UNL1        0.2320
      2 C          62.4050   84.9801    9.8846 C.ar    1  UNL1       -0.0002
      3 C          63.1235   84.5111    8.6542 C.ar    1  UNL1       -0.0000
      4 C          62.6370   84.9264    7.2974 C.ar    1  UNL1       -0.0002
      5 C          61.4320   85.8106    7.1711 C.ar    1  UNL1       -0.0007
      6 C          60.7135   86.2796    8.4014 C.ar    1  UNL1        0.0212
      7 C          61.2000   85.8643    9.7582 C.ar    1  UNL1       -0.0007
      8 C          63.5555   85.1756   13.6778 C.ar    1  UNL1        0.0246
      9 C          63.0690   85.5908   12.3210 C.ar    1  UNL1        0.0020
     10 C          62.8916   84.5647   11.2414 C.ar    1  UNL1        0.0001
     11 C          63.2007   83.1233   11.5185 C.ar    1  UNL1        0.0009
     12 C          63.6872   82.7081   12.8752 C.ar    1  UNL1        0.0114
     13 C          63.8646   83.7342   13.9549 C.ar    1  UNL1        0.0587
     14 CL         64.3512   83.3188   15.3117 Cl      1  UNL1       -0.0822
     15 O          63.0076   86.0511   16.0617 O.co2   1  UNL1       -0.5446
     16 C          63.7329   86.2017   14.7574 C.2     1  UNL1        0.0737
     17 O          64.6357   87.3783   14.5328 O.co2   1  UNL1       -0.5446
     18 O          59.5923   88.6074    8.6741 O.3     1  UNL1       -0.4706
     19 C          60.3650   89.0038    9.8972 C.ar    1  UNL1        0.1396
     20 C          59.8679   88.6135   11.2575 C.ar    1  UNL1        0.0371
     21 C          60.6406   89.0098   12.4805 C.ar    1  UNL1        0.0084
     22 C          61.9103   89.7965   12.3432 C.ar    1  UNL1        0.0642
     23 C          62.8782   90.3255   13.3599 C.ar    1  UNL1        0.2669
     24 O          62.7698   90.1654   14.8474 O.2     1  UNL1       -0.2664
     25 N          63.9734   91.0428   12.6278 N.ar    1  UNL1       -0.2681
     26 S          63.6824   90.9571   11.1588 S.2     1  UNL1       -0.0068
     27 C          62.4074   90.1869   10.9829 C.ar    1  UNL1        0.0534
     28 C          61.6347   89.7905    9.7599 C.ar    1  UNL1        0.0449
     29 C          65.1527   91.7259   13.2547 C.3     1  UNL1        0.0956
     30 C          65.8165   92.9747   12.7548 C.3     1  UNL1        0.0233
     31 C          66.9492   93.3006   13.6827 C.3     1  UNL1        0.0020
     32 C          66.9853   92.2533   14.7559 C.3     1  UNL1        0.0020
     33 C          65.8749   91.2800   14.4914 C.3     1  UNL1        0.0233
@<TRIPOS>UNITY_ATOM_ATTR
15 1
charge -1
@<TRIPOS>BOND
     1    15    16   ar
     2    16    17   ar
     3    16     8    1
     4     8     9   ar
     5     9    10   ar
     6    10     2    1
     7     2     3   ar
     8     3     4   ar
     9     4     5   ar
    10     5     6   ar
    11     6     1    1
    12     1    18    1
    13    18    19    1
    14    19    20   ar
    15    20    21   ar
    16    21    22   ar
    17    22    23   ar
    18    23    24    2
    19    23    25   ar
    20    25    29    1
    21    29    30    1
    22    30    31    1
    23    31    32    1
    24    32    33    1
    25    25    26   ar
    26    26    27   ar
    27    27    28   ar
    28     6     7   ar
    29    10    11   ar
    30    11    12   ar
    31    12    13   ar
    32    13    14    1
    33    13     8   ar
    34     7     2   ar
    35    28    19   ar
    36    27    22   ar
    37    33    29    1
@<TRIPOS>MOLECULE
*****
 33 37 0 0 0
SMALL
GASTEIGER

@<TRIPOS>ATOM
      1 C          59.5425   88.9015   11.3828 C.3     1  UNL1        0.2320
      2 C          61.7172   85.8109   10.1709 C.ar    1  UNL1       -0.0002
      3 C          61.5298   85.8976    8.6852 C.ar    1  UNL1       -0.0000
      4 C          60.6799   86.9856    8.0987 C.ar    1  UNL1       -0.0002
      5 C          60.0175   87.9869    8.9979 C.ar    1  UNL1       -0.0007
      6 C          60.2050   87.9002   10.4836 C.ar    1  UNL1        0.0212
      7 C          61.0548   86.8122   11.0701 C.ar    1  UNL1       -0.0007
      8 C          63.3536   83.3439   12.8140 C.ar    1  UNL1        0.0246
      9 C          62.5038   84.4319   12.2275 C.ar    1  UNL1        0.0020
     10 C          62.5672   84.7229   10.7574 C.ar    1  UNL1        0.0001
     11 C          63.4804   83.9260    9.8737 C.ar    1  UNL1        0.0009
     12 C          64.3303   82.8380   10.4602 C.ar    1  UNL1        0.0114
     13 C          64.2669   82.5470   11.9304 C.ar    1  UNL1        0.0587
     14 CL         65.1168   81.4589   12.5168 Cl      1  UNL1       -0.0822
     15 O          62.2837   82.0741   14.8122 O.co2   1  UNL1       -0.5446
     16 C          63.2903   83.0529   14.2841 C.2     1  UNL1        0.0737
     17 O          64.2334   83.7405   15.2262 O.co2   1  UNL1       -0.5446
     18 O          60.1931   89.2940   12.6761 O.3     1  UNL1       -0.4706
     19 C          61.5596   89.9126   12.6709 C.ar    1  UNL1        0.1396
     20 C          62.4196   89.8419   13.8978 C.ar    1  UNL1        0.0371
     21 C          63.7861   90.4604   13.8925 C.ar    1  UNL1        0.0084
     22 C          64.2926   91.1496   12.6603 C.ar    1  UNL1        0.0642
     23 C          65.5869   91.8459   12.3600 C.ar    1  UNL1        0.2669
     24 O          66.7390   92.0120   13.3061 O.2     1  UNL1       -0.2664
     25 N          65.5268   92.3469   10.9474 N.ar    1  UNL1       -0.2681
     26 S          64.1954   91.9603   10.3747 S.2     1  UNL1       -0.0068
     27 C          63.4327   91.2203   11.4334 C.ar    1  UNL1        0.0534
     28 C          62.0662   90.6018   11.4387 C.ar    1  UNL1        0.0449
     29 C          66.6082   93.1020   10.2329 C.3     1  UNL1        0.0956
     30 C          66.5753   94.5570    9.8698 C.3     1  UNL1        0.0233
     31 C          67.8592   94.8888    9.1685 C.3     1  UNL1        0.0020
     32 C          68.6854   93.6389    9.0982 C.3     1  UNL1        0.0020
     33 C          67.9122   92.5345    9.7561 C.3     1  UNL1        0.0233
@<TRIPOS>UNITY_ATOM_ATTR
15 1
charge -1
@<TRIPOS>BOND
     1    15    16   ar
     2    16    17   ar
     3    16     8    1
     4     8     9   ar
     5     9    10   ar
     6    10     2    1
     7     2     3   ar
     8     3     4   ar
     9     4     5   ar
    10     5     6   ar
    11     6     1    1
    12     1    18    1
    13    18    19    1
    14    19    20   ar
    15    20    21   ar
    16    21    22   ar
    17    22    23   ar
    18    23    24    2
    19    23    25   ar
    20    25    29    1
    21    29    30    1
    22    30    31    1
    23    31    32    1
    24    32    33    1
    25    25    26   ar
    26    26    27   ar
    27    27    28   ar
    28     6     7   ar
    29    10    11   ar
    30    11    12   ar
    31    12    13   ar
    32    13    14    1
    33    13     8   ar
    34     7     2   ar
    35    28    19   ar
    36    27    22   ar
    37    33    29    1
