@<TRIPOS>MOLECULE
*****
 32 35 0 0 0
SMALL
GASTEIGER

@<TRIPOS>ATOM
      1 N          63.6415   87.0827   15.6965 N.am    1  UNL1       -0.2681
      2 C          64.1135   88.1499   14.7542 C.2     1  UNL1        0.3082
      3 O          64.2838   87.8413   13.2962 O.2     1  UNL1       -0.2522
      4 N          64.4154   89.5258   15.2698 N.am    1  UNL1       -0.2681
      5 H          63.5298   87.2852   16.6535 H       1  UNL1        0.1564
      6 H          64.3037   89.7284   16.2267 H       1  UNL1        0.1564
      7 C          63.4218   83.9535   13.2653 C.ar    1  UNL1        0.0546
      8 C          62.7359   82.9549   14.1500 C.ar    1  UNL1        0.0046
      9 C          62.3519   83.3322   15.5500 C.ar    1  UNL1        0.0014
     10 C          62.6538   84.7081   16.0655 C.ar    1  UNL1        0.0147
     11 C          63.3397   85.7067   15.1809 C.ar    1  UNL1        0.0517
     12 C          63.7237   85.3295   13.7809 C.ar    1  UNL1        0.0192
     13 C          63.6364   83.9684    9.3025 C.3     1  UNL1        0.1109
     14 N          63.2525   84.3457   10.7026 N.am    1  UNL1       -0.2992
     15 C          63.8058   83.5762   11.8654 C.2     1  UNL1        0.2459
     16 O          64.7431   82.4295   11.6279 O.2     1  UNL1       -0.2701
     17 H          62.6373   85.0984   10.8584 H       1  UNL1        0.1498
     18 C          64.8874   90.5930   14.3274 C.ar    1  UNL1        0.0516
     19 C          64.0603   90.9554   13.1296 C.ar    1  UNL1        0.0147
     20 C          64.5323   92.0226   12.1873 C.ar    1  UNL1        0.0010
     21 C          65.8316   92.7276   12.4426 C.ar    1  UNL1       -0.0014
     22 C          66.6587   92.3652   13.6403 C.ar    1  UNL1        0.0010
     23 C          66.1866   91.2979   14.5827 C.ar    1  UNL1        0.0147
     24 C          66.3036   93.7948   11.5002 C.2     1  UNL1        0.0158
     25 C          65.8985   95.2222   11.7200 C.2     1  UNL1        0.0487
     26 C          66.3705   96.2895   10.7777 C.2     1  UNL1        0.2355
     27 N          67.2477   95.9294    9.6154 N.2     1  UNL1       -0.0325
     28 C          67.6528   94.5019    9.3955 C.2     1  UNL1        0.3799
     29 N          68.5028   93.8503    8.3454 N.2     1  UNL1       -0.0106
     30 C          68.5560   92.3802    8.6388 C.2     1  UNL1        0.3351
     31 N          67.7390   92.1233    9.8702 N.2     1  UNL1       -0.2103
     32 C          67.1808   93.4347   10.3379 C.3     1  UNL1        0.2404
@<TRIPOS>BOND
     1    13    14    1
     2    14    15   am
     3    15    16    2
     4    15     7    1
     5     7     8   ar
     6     8     9   ar
     7     9    10   ar
     8    10    11   ar
     9    11     1    1
    10     1     2   am
    11     2     3    2
    12     2     4   am
    13     4    18    1
    14    18    19   ar
    15    19    20   ar
    16    20    21   ar
    17    21    24    1
    18    24    25    2
    19    25    26    1
    20    26    27    2
    21    27    28    1
    22    28    29    2
    23    29    30    1
    24    30    31    2
    25    31    32    1
    26    21    22   ar
    27    22    23   ar
    28    11    12   ar
    29    12     7   ar
    30    23    18   ar
    31    32    24    1
    32    32    28    1
    33    14    17    1
    34     1     5    1
    35     4     6    1
@<TRIPOS>MOLECULE
*****
 32 35 0 0 0
SMALL
GASTEIGER

@<TRIPOS>ATOM
      1 N          59.0058   90.4761    6.5442 N.am    1  UNL1       -0.2681
      2 C          59.8142   90.8864    5.3493 C.2     1  UNL1        0.3082
      3 O          61.0513   90.1217    4.9822 O.2     1  UNL1       -0.2522
      4 N          59.3856   92.0615    4.5213 N.am    1  UNL1       -0.2681
      5 H          58.1938   90.9781    6.7851 H       1  UNL1        0.1564
      6 H          58.5736   92.5634    4.7622 H       1  UNL1        0.1564
      7 C          60.7191   88.3360    9.4138 C.ar    1  UNL1        0.0546
      8 C          60.2914   86.9508    9.0282 C.ar    1  UNL1        0.0046
      9 C          59.4353   86.7409    7.8145 C.ar    1  UNL1        0.0014
     10 C          59.0067   87.9160    6.9866 C.ar    1  UNL1        0.0147
     11 C          59.4344   89.3010    7.3723 C.ar    1  UNL1        0.0517
     12 C          60.2905   89.5111    8.5858 C.ar    1  UNL1        0.0192
     13 C          63.0213   90.1070   12.1181 C.3     1  UNL1        0.1109
     14 N          62.1652   89.8970   10.9045 N.am    1  UNL1       -0.2992
     15 C          61.5752   88.5459   10.6274 C.2     1  UNL1        0.2459
     16 O          61.8416   87.4049   11.5639 O.2     1  UNL1       -0.2701
     17 H          61.9904   90.6459   10.2899 H       1  UNL1        0.1498
     18 C          60.1940   92.4718    3.3264 C.ar    1  UNL1        0.0516
     19 C          59.5186   93.1008    2.1439 C.ar    1  UNL1        0.0147
     20 C          60.3270   93.5111    0.9489 C.ar    1  UNL1        0.0010
     21 C          61.8110   93.2924    0.9363 C.ar    1  UNL1       -0.0014
     22 C          62.4865   92.6634    2.1188 C.ar    1  UNL1        0.0010
     23 C          61.6779   92.2531    3.3138 C.ar    1  UNL1        0.0147
     24 C          62.6195   93.7027   -0.2587 C.2     1  UNL1        0.0158
     25 C          62.3196   93.1136   -1.6052 C.2     1  UNL1        0.0487
     26 C          63.1280   93.5239   -2.8001 C.2     1  UNL1        0.2355
     27 N          64.2364   94.5233   -2.6487 N.2     1  UNL1       -0.0325
     28 C          64.5363   95.1123   -1.3022 C.2     1  UNL1        0.3799
     29 N          65.5593   96.1113   -0.8490 N.2     1  UNL1       -0.0106
     30 C          65.3831   96.3183    0.6262 C.2     1  UNL1        0.3351
     31 N          64.2512   95.4474    1.0847 N.2     1  UNL1       -0.2103
     32 C          63.7278   94.7020   -0.1072 C.3     1  UNL1        0.2404
@<TRIPOS>BOND
     1    13    14    1
     2    14    15   am
     3    15    16    2
     4    15     7    1
     5     7     8   ar
     6     8     9   ar
     7     9    10   ar
     8    10    11   ar
     9    11     1    1
    10     1     2   am
    11     2     3    2
    12     2     4   am
    13     4    18    1
    14    18    19   ar
    15    19    20   ar
    16    20    21   ar
    17    21    24    1
    18    24    25    2
    19    25    26    1
    20    26    27    2
    21    27    28    1
    22    28    29    2
    23    29    30    1
    24    30    31    2
    25    31    32    1
    26    21    22   ar
    27    22    23   ar
    28    11    12   ar
    29    12     7   ar
    30    23    18   ar
    31    32    24    1
    32    32    28    1
    33    14    17    1
    34     1     5    1
    35     4     6    1
@<TRIPOS>MOLECULE
*****
 32 35 0 0 0
SMALL
GASTEIGER

@<TRIPOS>ATOM
      1 N          64.3941   90.7156   16.0125 N.am    1  UNL1       -0.2681
      2 C          64.2428   89.3449   15.4226 C.2     1  UNL1        0.3082
      3 O          64.9638   88.9897   14.1561 O.2     1  UNL1       -0.2522
      4 N          63.3704   88.3293   16.0991 N.am    1  UNL1       -0.2681
      5 H          63.9209   90.9487   16.8438 H       1  UNL1        0.1564
      6 H          62.8972   88.5624   16.9303 H       1  UNL1        0.1564
      7 C          66.0335   92.9583   13.1783 C.ar    1  UNL1        0.0546
      8 C          67.0111   93.7625   13.9832 C.ar    1  UNL1        0.0046
      9 C          67.1163   93.5509   15.4644 C.ar    1  UNL1        0.0014
     10 C          66.2440   92.5353   16.1409 C.ar    1  UNL1        0.0147
     11 C          65.2664   91.7313   15.3360 C.ar    1  UNL1        0.0517
     12 C          65.1611   91.9427   13.8548 C.ar    1  UNL1        0.0192
     13 C          66.7603   94.3268    9.5246 C.3     1  UNL1        0.1109
     14 N          66.8656   94.1153   11.0059 N.am    1  UNL1       -0.2992
     15 C          65.9283   93.1698   11.6971 C.2     1  UNL1        0.2459
     16 O          64.8858   92.4359   10.9068 O.2     1  UNL1       -0.2701
     17 H          67.5498   94.5970   11.5246 H       1  UNL1        0.1498
     18 C          63.2191   86.9586   15.5092 C.ar    1  UNL1        0.0516
     19 C          63.6854   86.6889   14.1092 C.ar    1  UNL1        0.0147
     20 C          63.5341   85.3182   13.5192 C.ar    1  UNL1        0.0010
     21 C          62.9164   84.2169   14.3293 C.ar    1  UNL1       -0.0014
     22 C          62.4502   84.4866   15.7292 C.ar    1  UNL1        0.0010
     23 C          62.6015   85.8574   16.3192 C.ar    1  UNL1        0.0147
     24 C          62.7651   82.8462   13.7393 C.2     1  UNL1        0.0158
     25 C          62.1489   81.7447   14.5498 C.2     1  UNL1        0.0487
     26 C          61.9976   80.3740   13.9598 C.2     1  UNL1        0.2355
     27 N          62.4625   80.1046   12.5593 N.2     1  UNL1       -0.0325
     28 C          63.0788   81.2061   11.7489 C.2     1  UNL1        0.3799
     29 N          63.6257   81.2394   10.3525 N.2     1  UNL1       -0.0106
     30 C          64.1150   82.6308   10.0795 C.2     1  UNL1        0.3351
     31 N          63.8705   83.4574   11.3071 N.2     1  UNL1       -0.2103
     32 C          63.2301   82.5769   12.3388 C.3     1  UNL1        0.2404
@<TRIPOS>BOND
     1    13    14    1
     2    14    15   am
     3    15    16    2
     4    15     7    1
     5     7     8   ar
     6     8     9   ar
     7     9    10   ar
     8    10    11   ar
     9    11     1    1
    10     1     2   am
    11     2     3    2
    12     2     4   am
    13     4    18    1
    14    18    19   ar
    15    19    20   ar
    16    20    21   ar
    17    21    24    1
    18    24    25    2
    19    25    26    1
    20    26    27    2
    21    27    28    1
    22    28    29    2
    23    29    30    1
    24    30    31    2
    25    31    32    1
    26    21    22   ar
    27    22    23   ar
    28    11    12   ar
    29    12     7   ar
    30    23    18   ar
    31    32    24    1
    32    32    28    1
    33    14    17    1
    34     1     5    1
    35     4     6    1
@<TRIPOS>MOLECULE
*****
 32 35 0 0 0
SMALL
GASTEIGER

@<TRIPOS>ATOM
      1 N          58.8968   90.4358    6.0803 N.am    1  UNL1       -0.2681
      2 C          59.8868   91.0556    5.1392 C.2     1  UNL1        0.3082
      3 O          61.3279   90.6425    5.1877 O.2     1  UNL1       -0.2522
      4 N          59.4357   92.0885    4.1494 N.am    1  UNL1       -0.2681
      5 H          57.9510   90.7070    6.0484 H       1  UNL1        0.1564
      6 H          58.4898   92.3597    4.1175 H       1  UNL1        0.1564
      7 C          60.6658   88.7685    9.2173 C.ar    1  UNL1        0.0546
      8 C          60.2501   87.3370    9.0495 C.ar    1  UNL1        0.0046
      9 C          59.3834   86.9385    7.8919 C.ar    1  UNL1        0.0014
     10 C          58.9323   87.9714    6.9022 C.ar    1  UNL1        0.0147
     11 C          59.3480   89.4029    7.0701 C.ar    1  UNL1        0.0517
     12 C          60.2147   89.8015    8.2276 C.ar    1  UNL1        0.0192
     13 C          63.1263   90.8774   11.5084 C.3     1  UNL1        0.1109
     14 N          62.2595   90.4789   10.3508 N.am    1  UNL1       -0.2992
     15 C          61.5324   89.1670   10.3749 C.2     1  UNL1        0.2459
     16 O          61.6722   88.2537   11.5565 O.2     1  UNL1       -0.2701
     17 H          62.1679   91.0783    9.5752 H       1  UNL1        0.1498
     18 C          60.4256   92.7083    3.2083 C.ar    1  UNL1        0.0516
     19 C          61.7913   92.1073    3.0536 C.ar    1  UNL1        0.0147
     20 C          62.7812   92.7270    2.1125 C.ar    1  UNL1        0.0010
     21 C          62.4056   93.9478    1.3259 C.ar    1  UNL1       -0.0014
     22 C          61.0400   94.5488    1.4805 C.ar    1  UNL1        0.0010
     23 C          60.0500   93.9290    2.4217 C.ar    1  UNL1        0.0147
     24 C          63.3957   94.5676    0.3848 C.2     1  UNL1        0.0158
     25 C          64.4237   95.5287    0.9038 C.2     1  UNL1        0.0487
     26 C          65.4137   96.1484   -0.0373 C.2     1  UNL1        0.2355
     27 N          65.3757   95.8071   -1.4975 N.2     1  UNL1       -0.0325
     28 C          64.3476   94.8460   -2.0165 C.2     1  UNL1        0.3799
     29 N          64.0682   94.3224   -3.3941 N.2     1  UNL1       -0.0106
     30 C          62.9055   93.3790   -3.3043 C.2     1  UNL1        0.3351
     31 N          62.4663   93.3196   -1.8713 N.2     1  UNL1       -0.2103
     32 C          63.3576   94.2263   -1.0754 C.3     1  UNL1        0.2404
@<TRIPOS>BOND
     1    13    14    1
     2    14    15   am
     3    15    16    2
     4    15     7    1
     5     7     8   ar
     6     8     9   ar
     7     9    10   ar
     8    10    11   ar
     9    11     1    1
    10     1     2   am
    11     2     3    2
    12     2     4   am
    13     4    18    1
    14    18    19   ar
    15    19    20   ar
    16    20    21   ar
    17    21    24    1
    18    24    25    2
    19    25    26    1
    20    26    27    2
    21    27    28    1
    22    28    29    2
    23    29    30    1
    24    30    31    2
    25    31    32    1
    26    21    22   ar
    27    22    23   ar
    28    11    12   ar
    29    12     7   ar
    30    23    18   ar
    31    32    24    1
    32    32    28    1
    33    14    17    1
    34     1     5    1
    35     4     6    1
@<TRIPOS>MOLECULE
*****
 32 35 0 0 0
SMALL
GASTEIGER

@<TRIPOS>ATOM
      1 N          63.5941   90.7107   13.4517 N.am    1  UNL1       -0.2681
      2 C          63.6153   89.2211   13.2778 C.2     1  UNL1        0.3082
      3 O          64.4456   88.3708   14.1930 O.2     1  UNL1       -0.2522
      4 N          62.8061   88.5815   12.1885 N.am    1  UNL1       -0.2681
      5 H          63.0491   91.2687   12.8510 H       1  UNL1        0.1564
      6 H          62.2611   89.1395   11.5878 H       1  UNL1        0.1564
      7 C          66.6131   92.4490   15.3528 C.ar    1  UNL1        0.0546
      8 C          66.0213   92.6294   16.7194 C.ar    1  UNL1        0.0046
      9 C          64.6205   92.1701   16.9967 C.ar    1  UNL1        0.0014
     10 C          63.8115   91.5306   15.9074 C.ar    1  UNL1        0.0147
     11 C          64.4032   91.3503   14.5410 C.ar    1  UNL1        0.0517
     12 C          65.8040   91.8095   14.2636 C.ar    1  UNL1        0.0192
     13 C          70.1065   94.2876   15.7599 C.3     1  UNL1        0.1109
     14 N          68.7057   93.8284   16.0372 N.am    1  UNL1       -0.2992
     15 C          68.0138   92.9082   15.0755 C.2     1  UNL1        0.2459
     16 O          68.7228   92.4474   13.8366 O.2     1  UNL1       -0.2701
     17 H          68.2404   94.1309   16.8503 H       1  UNL1        0.1498
     18 C          62.8273   87.0919   12.0146 C.ar    1  UNL1        0.0516
     19 C          63.4646   86.2238   13.0588 C.ar    1  UNL1        0.0147
     20 C          63.4858   84.7341   12.8849 C.ar    1  UNL1        0.0010
     21 C          62.8697   84.1124   11.6666 C.ar    1  UNL1       -0.0014
     22 C          62.2324   84.9804   10.6224 C.ar    1  UNL1        0.0010
     23 C          62.2113   86.4702   10.7964 C.ar    1  UNL1        0.0147
     24 C          62.8909   82.6226   11.4927 C.2     1  UNL1        0.0158
     25 C          63.4273   82.0229   10.2268 C.2     1  UNL1        0.0487
     26 C          63.4486   80.5333   10.0528 C.2     1  UNL1        0.2355
     27 N          62.9334   79.6432   11.1448 N.2     1  UNL1       -0.0325
     28 C          62.3970   80.2429   12.4108 C.2     1  UNL1        0.3799
     29 N          61.8261   79.6231   13.6517 N.2     1  UNL1       -0.0106
     30 C          61.4521   80.7298   14.5926 C.2     1  UNL1        0.3351
     31 N          61.7917   82.0336   13.9332 N.2     1  UNL1       -0.2103
     32 C          62.3757   81.7326   12.5847 C.3     1  UNL1        0.2404
@<TRIPOS>BOND
     1    13    14    1
     2    14    15   am
     3    15    16    2
     4    15     7    1
     5     7     8   ar
     6     8     9   ar
     7     9    10   ar
     8    10    11   ar
     9    11     1    1
    10     1     2   am
    11     2     3    2
    12     2     4   am
    13     4    18    1
    14    18    19   ar
    15    19    20   ar
    16    20    21   ar
    17    21    24    1
    18    24    25    2
    19    25    26    1
    20    26    27    2
    21    27    28    1
    22    28    29    2
    23    29    30    1
    24    30    31    2
    25    31    32    1
    26    21    22   ar
    27    22    23   ar
    28    11    12   ar
    29    12     7   ar
    30    23    18   ar
    31    32    24    1
    32    32    28    1
    33    14    17    1
    34     1     5    1
    35     4     6    1
@<TRIPOS>MOLECULE
*****
 32 35 0 0 0
SMALL
GASTEIGER

@<TRIPOS>ATOM
      1 N          61.5783   86.2000   12.5064 N.am    1  UNL1       -0.2681
      2 C          62.4859   87.3609   12.2267 C.2     1  UNL1        0.3082
      3 O          63.9739   87.1781   12.2746 O.2     1  UNL1       -0.2522
      4 N          61.9056   88.7048   11.8990 N.am    1  UNL1       -0.2681
      5 H          60.6016   86.3200   12.4750 H       1  UNL1        0.1564
      6 H          60.9289   88.8248   11.8676 H       1  UNL1        0.1564
      7 C          63.1012   82.5627   12.0587 C.ar    1  UNL1        0.0546
      8 C          63.3192   82.1685   13.4895 C.ar    1  UNL1        0.0046
      9 C          62.9569   83.1182   14.5926 C.ar    1  UNL1        0.0014
     10 C          62.3766   84.4620   14.2649 C.ar    1  UNL1        0.0147
     11 C          62.1586   84.8561   12.8341 C.ar    1  UNL1        0.0517
     12 C          62.5209   83.9066   11.7310 C.ar    1  UNL1        0.0192
     13 C          63.0889   79.3648    9.7085 C.3     1  UNL1        0.1109
     14 N          62.7266   80.3145   10.8116 N.am    1  UNL1       -0.2992
     15 C          63.4636   81.6130   10.9556 C.2     1  UNL1        0.2459
     16 O          64.5629   81.9618    9.9966 O.2     1  UNL1       -0.2701
     17 H          62.0050   80.0855   11.4410 H       1  UNL1        0.1498
     18 C          62.8132   89.8657   11.6193 C.ar    1  UNL1        0.0516
     19 C          62.8435   90.4816   10.2519 C.ar    1  UNL1        0.0147
     20 C          63.7511   91.6425    9.9721 C.ar    1  UNL1        0.0010
     21 C          64.6286   92.1877   11.0599 C.ar    1  UNL1       -0.0014
     22 C          64.5983   91.5719   12.4273 C.ar    1  UNL1        0.0010
     23 C          63.6906   90.4109   12.7070 C.ar    1  UNL1        0.0147
     24 C          65.5363   93.3487   10.7801 C.2     1  UNL1        0.0158
     25 C          65.0853   94.7451   11.0906 C.2     1  UNL1        0.0487
     26 C          65.9929   95.9061   10.8109 C.2     1  UNL1        0.2355
     27 N          67.3516   95.6706   10.2205 N.2     1  UNL1       -0.0325
     28 C          67.8026   94.2742    9.9100 C.2     1  UNL1        0.3799
     29 N          69.0768   93.7369    9.3289 N.2     1  UNL1       -0.0106
     30 C          68.9567   92.2438    9.2495 C.2     1  UNL1        0.3351
     31 N          67.6082   91.8583    9.7816 N.2     1  UNL1       -0.2103
     32 C          66.8950   93.1132   10.1898 C.3     1  UNL1        0.2404
@<TRIPOS>BOND
     1    13    14    1
     2    14    15   am
     3    15    16    2
     4    15     7    1
     5     7     8   ar
     6     8     9   ar
     7     9    10   ar
     8    10    11   ar
     9    11     1    1
    10     1     2   am
    11     2     3    2
    12     2     4   am
    13     4    18    1
    14    18    19   ar
    15    19    20   ar
    16    20    21   ar
    17    21    24    1
    18    24    25    2
    19    25    26    1
    20    26    27    2
    21    27    28    1
    22    28    29    2
    23    29    30    1
    24    30    31    2
    25    31    32    1
    26    21    22   ar
    27    22    23   ar
    28    11    12   ar
    29    12     7   ar
    30    23    18   ar
    31    32    24    1
    32    32    28    1
    33    14    17    1
    34     1     5    1
    35     4     6    1
@<TRIPOS>MOLECULE
*****
 32 35 0 0 0
SMALL
GASTEIGER

@<TRIPOS>ATOM
      1 N          64.6239   91.0446   15.6799 N.am    1  UNL1       -0.2681
      2 C          64.5876   89.7481   14.9267 C.2     1  UNL1        0.3082
      3 O          65.5371   89.5146   13.7891 O.2     1  UNL1       -0.2522
      4 N          63.6018   88.6847   15.3110 N.am    1  UNL1       -0.2681
      5 H          64.0007   91.1978   16.4265 H       1  UNL1        0.1564
      6 H          62.9786   88.8379   16.0576 H       1  UNL1        0.1564
      7 C          66.5362   93.7911   13.5467 C.ar    1  UNL1        0.0546
      8 C          67.5813   94.2346   14.5272 C.ar    1  UNL1        0.0046
      9 C          67.6405   93.6147   15.8919 C.ar    1  UNL1        0.0014
     10 C          66.6547   92.5514   16.2761 C.ar    1  UNL1        0.0147
     11 C          65.6097   92.1080   15.2956 C.ar    1  UNL1        0.0517
     12 C          65.5504   92.7277   13.9310 C.ar    1  UNL1        0.0192
     13 C          66.8380   94.2384    9.6149 C.3     1  UNL1        0.1109
     14 N          66.8972   93.6186   10.9796 N.am    1  UNL1       -0.2992
     15 C          66.4770   94.4108   12.1821 C.2     1  UNL1        0.2459
     16 O          65.9976   95.8229   12.0198 O.2     1  UNL1       -0.2701
     17 H          67.2118   92.6918   11.0861 H       1  UNL1        0.1498
     18 C          63.5655   87.3881   14.5578 C.ar    1  UNL1        0.0516
     19 C          63.9691   86.1138   15.2384 C.ar    1  UNL1        0.0147
     20 C          63.9328   84.8172   14.4852 C.ar    1  UNL1        0.0010
     21 C          63.4929   84.7948   13.0512 C.ar    1  UNL1       -0.0014
     22 C          63.0893   86.0691   12.3706 C.ar    1  UNL1        0.0010
     23 C          63.1256   87.3657   13.1239 C.ar    1  UNL1        0.0147
     24 C          63.4566   83.4981   12.2980 C.2     1  UNL1        0.0158
     25 C          64.0855   83.4020   10.9397 C.2     1  UNL1        0.0487
     26 C          64.0493   82.1054   10.1865 C.2     1  UNL1        0.2355
     27 N          63.3840   80.9048   10.7916 N.2     1  UNL1       -0.0325
     28 C          62.7551   81.0009   12.1500 C.2     1  UNL1        0.3799
     29 N          62.0333   79.9938   12.9953 N.2     1  UNL1       -0.0106
     30 C          61.6235   80.6681   14.2710 C.2     1  UNL1        0.3351
     31 N          62.0920   82.0919   14.2141 N.2     1  UNL1       -0.2103
     32 C          62.7914   82.2976   12.9032 C.3     1  UNL1        0.2404
@<TRIPOS>BOND
     1    13    14    1
     2    14    15   am
     3    15    16    2
     4    15     7    1
     5     7     8   ar
     6     8     9   ar
     7     9    10   ar
     8    10    11   ar
     9    11     1    1
    10     1     2   am
    11     2     3    2
    12     2     4   am
    13     4    18    1
    14    18    19   ar
    15    19    20   ar
    16    20    21   ar
    17    21    24    1
    18    24    25    2
    19    25    26    1
    20    26    27    2
    21    27    28    1
    22    28    29    2
    23    29    30    1
    24    30    31    2
    25    31    32    1
    26    21    22   ar
    27    22    23   ar
    28    11    12   ar
    29    12     7   ar
    30    23    18   ar
    31    32    24    1
    32    32    28    1
    33    14    17    1
    34     1     5    1
    35     4     6    1
@<TRIPOS>MOLECULE
*****
 32 35 0 0 0
SMALL
GASTEIGER

@<TRIPOS>ATOM
      1 N          59.9470   88.6487   10.9725 N.am    1  UNL1       -0.2681
      2 C          61.2343   89.2441   11.4607 C.2     1  UNL1        0.3082
      3 O          62.3723   89.4554   10.5066 O.2     1  UNL1       -0.2522
      4 N          61.3837   89.6282   12.9030 N.am    1  UNL1       -0.2681
      5 H          59.2001   88.5101   11.5988 H       1  UNL1        0.1564
      6 H          60.6368   89.4895   13.5292 H       1  UNL1        0.1564
      7 C          59.4132   88.9381    7.0506 C.ar    1  UNL1        0.0546
      8 C          59.4989   87.4963    6.6457 C.ar    1  UNL1        0.0046
      9 C          59.7340   86.4387    7.6831 C.ar    1  UNL1        0.0014
     10 C          59.8834   86.8228    9.1254 C.ar    1  UNL1        0.0147
     11 C          59.7977   88.2646    9.5302 C.ar    1  UNL1        0.0517
     12 C          59.5626   89.3223    8.4929 C.ar    1  UNL1        0.0192
     13 C          57.5564   91.5723    4.7346 C.3     1  UNL1        0.1109
     14 N          57.7915   90.5146    5.7720 N.am    1  UNL1       -0.2992
     15 C          59.1781   89.9957    6.0133 C.2     1  UNL1        0.2459
     16 O          60.3296   90.5345    5.2171 O.2     1  UNL1       -0.2701
     17 H          57.0358   90.1610    6.2945 H       1  UNL1        0.1498
     18 C          62.6709   90.2236   13.3912 C.ar    1  UNL1        0.0516
     19 C          63.4613   91.1352   12.4998 C.ar    1  UNL1        0.0147
     20 C          64.7485   91.7306   12.9880 C.ar    1  UNL1        0.0010
     21 C          65.2456   91.4144   14.3675 C.ar    1  UNL1       -0.0014
     22 C          64.4553   90.5028   15.2588 C.ar    1  UNL1        0.0010
     23 C          63.1680   89.9074   14.7706 C.ar    1  UNL1        0.0147
     24 C          66.5329   92.0098   14.8557 C.2     1  UNL1        0.0158
     25 C          66.5809   92.7076   16.1826 C.2     1  UNL1        0.0487
     26 C          67.8682   93.3029   16.6708 C.2     1  UNL1        0.2355
     27 N          69.1076   93.2006   15.8320 N.2     1  UNL1       -0.0325
     28 C          69.0596   92.5028   14.5050 C.2     1  UNL1        0.3799
     29 N          70.1116   92.2474   13.4667 N.2     1  UNL1       -0.0106
     30 C          69.4744   91.4942   12.3369 C.2     1  UNL1        0.3351
     31 N          68.0286   91.2840   12.6769 N.2     1  UNL1       -0.2103
     32 C          67.7723   91.9074   14.0169 C.3     1  UNL1        0.2404
@<TRIPOS>BOND
     1    13    14    1
     2    14    15   am
     3    15    16    2
     4    15     7    1
     5     7     8   ar
     6     8     9   ar
     7     9    10   ar
     8    10    11   ar
     9    11     1    1
    10     1     2   am
    11     2     3    2
    12     2     4   am
    13     4    18    1
    14    18    19   ar
    15    19    20   ar
    16    20    21   ar
    17    21    24    1
    18    24    25    2
    19    25    26    1
    20    26    27    2
    21    27    28    1
    22    28    29    2
    23    29    30    1
    24    30    31    2
    25    31    32    1
    26    21    22   ar
    27    22    23   ar
    28    11    12   ar
    29    12     7   ar
    30    23    18   ar
    31    32    24    1
    32    32    28    1
    33    14    17    1
    34     1     5    1
    35     4     6    1
@<TRIPOS>MOLECULE
*****
 32 35 0 0 0
SMALL
GASTEIGER

@<TRIPOS>ATOM
      1 N          59.9660   94.2232    1.4128 N.am    1  UNL1       -0.2681
      2 C          60.1601   93.2039    2.4960 C.2     1  UNL1        0.3082
      3 O          61.5244   92.6381    2.7577 O.2     1  UNL1       -0.2522
      4 N          58.9899   92.7504    3.3176 N.am    1  UNL1       -0.2681
      5 H          59.0705   94.5945    1.2411 H       1  UNL1        0.1564
      6 H          58.0944   93.1217    3.1459 H       1  UNL1        0.1564
      7 C          62.5971   94.4744   -1.5477 C.ar    1  UNL1        0.0546
      8 C          63.4766   95.5839   -1.0519 C.ar    1  UNL1        0.0046
      9 C          63.1858   96.2397    0.2655 C.ar    1  UNL1        0.0014
     10 C          62.0156   95.7861    1.0870 C.ar    1  UNL1        0.0147
     11 C          61.1362   94.6767    0.5912 C.ar    1  UNL1        0.0517
     12 C          61.4268   94.0209   -0.7261 C.ar    1  UNL1        0.0192
     13 C          64.5059   92.5042   -4.4155 C.3     1  UNL1        0.1109
     14 N          64.2152   93.1600   -3.0982 N.am    1  UNL1       -0.2992
     15 C          62.8878   93.8187   -2.8649 C.2     1  UNL1        0.2459
     16 O          61.8512   93.8214   -3.9491 O.2     1  UNL1       -0.2701
     17 H          64.8955   93.1582   -2.3866 H       1  UNL1        0.1498
     18 C          59.1840   91.7312    4.4008 C.ar    1  UNL1        0.0516
     19 C          60.5657   91.2660    4.7541 C.ar    1  UNL1        0.0147
     20 C          60.7598   90.2468    5.8373 C.ar    1  UNL1        0.0010
     21 C          59.5723   89.6926    6.5672 C.ar    1  UNL1       -0.0014
     22 C          58.1906   90.1576    6.2139 C.ar    1  UNL1        0.0010
     23 C          57.9966   91.1769    5.1307 C.ar    1  UNL1        0.0147
     24 C          59.7664   88.6733    7.6505 C.2     1  UNL1        0.0158
     25 C          59.7600   87.2114    7.3146 C.2     1  UNL1        0.0487
     26 C          59.9541   86.1921    8.3977 C.2     1  UNL1        0.2355
     27 N          60.1548   86.6347    9.8169 N.2     1  UNL1       -0.0325
     28 C          60.1612   88.0966   10.1528 C.2     1  UNL1        0.3799
     29 N          60.3350   88.8273   11.4512 N.2     1  UNL1       -0.0106
     30 C          60.2482   90.2982   11.1704 C.2     1  UNL1        0.3351
     31 N          60.0208   90.4766    9.6985 N.2     1  UNL1       -0.2103
     32 C          59.9671   89.1159    9.0695 C.3     1  UNL1        0.2404
@<TRIPOS>BOND
     1    13    14    1
     2    14    15   am
     3    15    16    2
     4    15     7    1
     5     7     8   ar
     6     8     9   ar
     7     9    10   ar
     8    10    11   ar
     9    11     1    1
    10     1     2   am
    11     2     3    2
    12     2     4   am
    13     4    18    1
    14    18    19   ar
    15    19    20   ar
    16    20    21   ar
    17    21    24    1
    18    24    25    2
    19    25    26    1
    20    26    27    2
    21    27    28    1
    22    28    29    2
    23    29    30    1
    24    30    31    2
    25    31    32    1
    26    21    22   ar
    27    22    23   ar
    28    11    12   ar
    29    12     7   ar
    30    23    18   ar
    31    32    24    1
    32    32    28    1
    33    14    17    1
    34     1     5    1
    35     4     6    1
