@<TRIPOS>MOLECULE
*****
 27 29 0 0 0
SMALL
GASTEIGER

@<TRIPOS>ATOM
      1 C          58.6744   90.5083    5.9026 C.2     1  UNL1        0.0412
      2 C          59.4985   91.2133    4.8664 C.2     1  UNL1       -0.0331
      3 C          60.9767   90.9697    4.7905 C.3     1  UNL1        0.0418
      4 C          61.8007   91.6747    3.7542 C.3     1  UNL1        0.1002
      5 N          61.1467   92.6233    2.7938 N.3     1  UNL1       -0.1549
      6 C          59.6685   92.8669    2.8697 C.3     1  UNL1        0.1002
      7 C          58.8444   92.1618    3.9060 C.3     1  UNL1        0.0418
      8 S          61.9707   93.3283    1.7575 S.O2    1  UNL1        0.0633
      9 O          63.2240   92.8722    2.4439 O.2     1  UNL1       -0.1528
     10 O          60.7174   93.7845    1.0712 O.2     1  UNL1       -0.1528
     11 C          62.7948   94.0333    0.7213 C.ar    1  UNL1        0.1222
     12 C          62.3239   94.0876   -0.7018 C.ar    1  UNL1        0.0206
     13 C          63.1481   94.7927   -1.7381 C.ar    1  UNL1        0.0116
     14 C          64.4430   95.4433   -1.3512 C.ar    1  UNL1        0.0685
     15 C          64.9139   95.3890    0.0719 C.ar    1  UNL1        0.0116
     16 C          64.0898   94.6840    1.1082 C.ar    1  UNL1        0.0206
     17 C          65.2672   96.1484   -2.3875 C.1     1  UNL1        0.1004
     18 N          66.0913   96.8533   -3.4237 N.1     1  UNL1       -0.1908
     19 C          59.9826   88.6111    7.8234 C.1     1  UNL1       -0.0405
     20 C          59.3285   89.5597    6.8631 C.1     1  UNL1       -0.0583
     21 C          63.2218   84.6517    8.7350 C.3     1  UNL1        0.0521
     22 C          62.2562   85.6828    9.2396 C.ar    1  UNL1        0.0600
     23 C          61.9448   85.7653   10.7046 C.ar    1  UNL1        0.0148
     24 C          60.9792   86.7963   11.2092 C.ar    1  UNL1        0.0034
     25 C          60.3252   87.7449   10.2488 C.ar    1  UNL1        0.0276
     26 C          60.6366   87.6624    8.7839 C.ar    1  UNL1        0.1224
     27 N          61.6022   86.6314    8.2793 N.ar    1  UNL1       -0.2414
@<TRIPOS>BOND
     1    21    22    1
     2    22    23   ar
     3    23    24   ar
     4    24    25   ar
     5    25    26   ar
     6    26    19    1
     7    19    20    3
     8    20     1    1
     9     1     2    2
    10     2     3    1
    11     3     4    1
    12     4     5    1
    13     5     8    1
    14     8     9    2
    15     8    10    2
    16     8    11    1
    17    11    12   ar
    18    12    13   ar
    19    13    14   ar
    20    14    17    1
    21    17    18    3
    22    14    15   ar
    23    15    16   ar
    24     5     6    1
    25     6     7    1
    26    26    27   ar
    27    27    22   ar
    28     7     2    1
    29    16    11   ar
@<TRIPOS>MOLECULE
*****
 27 29 0 0 0
SMALL
GASTEIGER

@<TRIPOS>ATOM
      1 C          62.9365   86.6394   16.6023 C.2     1  UNL1        0.0412
      2 C          63.4366   87.7744   15.7588 C.2     1  UNL1       -0.0331
      3 C          63.7561   87.5486   14.3107 C.3     1  UNL1        0.0418
      4 C          64.2561   88.6836   13.4671 C.3     1  UNL1        0.1002
      5 N          64.4367   90.0445   14.0717 N.3     1  UNL1       -0.1549
      6 C          64.1172   90.2704   15.5197 C.3     1  UNL1        0.1002
      7 C          63.6171   89.1352   16.3633 C.3     1  UNL1        0.0418
      8 S          64.9368   91.1796   13.2281 S.O2    1  UNL1        0.0633
      9 O          66.1863   91.2440   14.0554 O.2     1  UNL1       -0.1528
     10 O          63.6872   91.1152   12.4008 O.2     1  UNL1       -0.1528
     11 C          65.4368   92.3146   12.3845 C.ar    1  UNL1        0.1222
     12 C          66.0905   93.4992   13.0323 C.ar    1  UNL1        0.0206
     13 C          66.5905   94.6342   12.1886 C.ar    1  UNL1        0.0116
     14 C          66.4369   94.5847   10.6974 C.ar    1  UNL1        0.0685
     15 C          65.7833   93.4001   10.0496 C.ar    1  UNL1        0.0116
     16 C          65.2832   92.2651   10.8932 C.ar    1  UNL1        0.0206
     17 C          66.9370   95.7197    9.8537 C.1     1  UNL1        0.1004
     18 N          67.4370   96.8547    9.0101 N.1     1  UNL1       -0.1908
     19 C          62.5754   83.9176   15.3933 C.1     1  UNL1       -0.0405
     20 C          62.7559   85.2785   15.9978 C.1     1  UNL1       -0.0583
     21 C          59.5017   79.9146   14.1572 C.3     1  UNL1        0.0521
     22 C          60.8580   80.5552   14.1707 C.ar    1  UNL1        0.0600
     23 C          62.0336   79.8350   13.5798 C.ar    1  UNL1        0.0148
     24 C          63.3898   80.4757   13.5934 C.ar    1  UNL1        0.0034
     25 C          63.5704   81.8365   14.1978 C.ar    1  UNL1        0.0276
     26 C          62.3948   82.5567   14.7888 C.ar    1  UNL1        0.1224
     27 N          61.0386   81.9161   14.7752 N.ar    1  UNL1       -0.2414
@<TRIPOS>BOND
     1    21    22    1
     2    22    23   ar
     3    23    24   ar
     4    24    25   ar
     5    25    26   ar
     6    26    19    1
     7    19    20    3
     8    20     1    1
     9     1     2    2
    10     2     3    1
    11     3     4    1
    12     4     5    1
    13     5     8    1
    14     8     9    2
    15     8    10    2
    16     8    11    1
    17    11    12   ar
    18    12    13   ar
    19    13    14   ar
    20    14    17    1
    21    17    18    3
    22    14    15   ar
    23    15    16   ar
    24     5     6    1
    25     6     7    1
    26    26    27   ar
    27    27    22   ar
    28     7     2    1
    29    16    11   ar
@<TRIPOS>MOLECULE
*****
 27 29 0 0 0
SMALL
GASTEIGER

@<TRIPOS>ATOM
      1 C          64.6527   91.5995   15.2036 C.2     1  UNL1        0.0412
      2 C          64.3738   90.1422   14.9836 C.2     1  UNL1       -0.0331
      3 C          64.6345   89.5228   13.6425 C.3     1  UNL1        0.0418
      4 C          64.3556   88.0655   13.4225 C.3     1  UNL1        0.1002
      5 N          63.8159   87.2275   14.5436 N.3     1  UNL1       -0.1549
      6 C          63.5552   87.8469   15.8846 C.3     1  UNL1        0.1002
      7 C          63.8342   89.3043   16.1046 C.3     1  UNL1        0.0418
      8 S          63.5370   85.7702   14.3236 S.O2    1  UNL1        0.0633
      9 O          63.9530   85.4776   15.7347 O.2     1  UNL1       -0.1528
     10 O          63.1210   86.0629   12.9125 O.2     1  UNL1       -0.1528
     11 C          63.2581   84.3129   14.1036 C.ar    1  UNL1        0.1222
     12 C          64.1075   83.5218   13.1535 C.ar    1  UNL1        0.0206
     13 C          63.8285   82.0644   12.9335 C.ar    1  UNL1        0.0116
     14 C          62.7002   81.3983   13.6636 C.ar    1  UNL1        0.0685
     15 C          61.8508   82.1894   14.6136 C.ar    1  UNL1        0.0116
     16 C          62.1297   83.6467   14.8336 C.ar    1  UNL1        0.0206
     17 C          62.4212   79.9409   13.4436 C.1     1  UNL1        0.1004
     18 N          62.1422   78.4836   13.2236 N.1     1  UNL1       -0.1908
     19 C          65.7320   93.2754   12.9615 C.1     1  UNL1       -0.0405
     20 C          65.1924   92.4374   14.0825 C.1     1  UNL1       -0.0583
     21 C          68.2106   93.6449    8.4096 C.3     1  UNL1        0.0521
     22 C          67.5109   94.2980    9.5646 C.ar    1  UNL1        0.0600
     23 C          67.3509   95.7891    9.5985 C.ar    1  UNL1        0.0148
     24 C          66.6512   96.4422   10.7534 C.ar    1  UNL1        0.0034
     25 C          66.1116   95.6043   11.8744 C.ar    1  UNL1        0.0276
     26 C          66.2716   94.1133   11.8405 C.ar    1  UNL1        0.1224
     27 N          66.9713   93.4602   10.6856 N.ar    1  UNL1       -0.2414
@<TRIPOS>BOND
     1    21    22    1
     2    22    23   ar
     3    23    24   ar
     4    24    25   ar
     5    25    26   ar
     6    26    19    1
     7    19    20    3
     8    20     1    1
     9     1     2    2
    10     2     3    1
    11     3     4    1
    12     4     5    1
    13     5     8    1
    14     8     9    2
    15     8    10    2
    16     8    11    1
    17    11    12   ar
    18    12    13   ar
    19    13    14   ar
    20    14    17    1
    21    17    18    3
    22    14    15   ar
    23    15    16   ar
    24     5     6    1
    25     6     7    1
    26    26    27   ar
    27    27    22   ar
    28     7     2    1
    29    16    11   ar
@<TRIPOS>MOLECULE
*****
 27 29 0 0 0
SMALL
GASTEIGER

@<TRIPOS>ATOM
      1 C          58.5108   89.7297    6.9603 C.2     1  UNL1        0.0412
      2 C          59.1123   90.5215    5.8373 C.2     1  UNL1       -0.0331
      3 C          60.6025   90.5842    5.6779 C.3     1  UNL1        0.0418
      4 C          61.2040   91.3760    4.5549 C.3     1  UNL1        0.1002
      5 N          60.3153   92.1051    3.5912 N.3     1  UNL1       -0.1549
      6 C          58.8251   92.0425    3.7506 C.3     1  UNL1        0.1002
      7 C          58.2236   91.2506    4.8737 C.3     1  UNL1        0.0418
      8 S          60.9167   92.8969    2.4682 S.O2    1  UNL1        0.0633
      9 O          59.5655   93.4606    2.1419 O.2     1  UNL1       -0.1528
     10 O          62.2679   92.3333    2.7945 O.2     1  UNL1       -0.1528
     11 C          61.5182   93.6888    1.3452 C.ar    1  UNL1        0.1222
     12 C          62.1830   95.0036    1.6265 C.ar    1  UNL1        0.0206
     13 C          62.7845   95.7954    0.5034 C.ar    1  UNL1        0.0116
     14 C          62.7212   95.2724   -0.9010 C.ar    1  UNL1        0.0685
     15 C          62.0564   93.9575   -1.1823 C.ar    1  UNL1        0.0116
     16 C          61.4550   93.1657   -0.0593 C.ar    1  UNL1        0.0206
     17 C          63.3227   96.0642   -2.0241 C.1     1  UNL1        0.1004
     18 N          63.9242   96.8559   -3.1471 N.1     1  UNL1       -0.1908
     19 C          60.2882   88.2714    8.8876 C.1     1  UNL1       -0.0405
     20 C          59.3995   89.0005    7.9240 C.1     1  UNL1       -0.0583
     21 C          63.5731   88.3378   12.9131 C.3     1  UNL1        0.0521
     22 C          62.8194   87.5755   11.8640 C.ar    1  UNL1        0.0600
     23 C          62.9543   86.0840   11.7785 C.ar    1  UNL1        0.0148
     24 C          62.2005   85.3217   10.7294 C.ar    1  UNL1        0.0034
     25 C          61.3118   86.0508    9.7657 C.ar    1  UNL1        0.0276
     26 C          61.1769   87.5422    9.8512 C.ar    1  UNL1        0.1224
     27 N          61.9307   88.3045   10.9004 N.ar    1  UNL1       -0.2414
@<TRIPOS>BOND
     1    21    22    1
     2    22    23   ar
     3    23    24   ar
     4    24    25   ar
     5    25    26   ar
     6    26    19    1
     7    19    20    3
     8    20     1    1
     9     1     2    2
    10     2     3    1
    11     3     4    1
    12     4     5    1
    13     5     8    1
    14     8     9    2
    15     8    10    2
    16     8    11    1
    17    11    12   ar
    18    12    13   ar
    19    13    14   ar
    20    14    17    1
    21    17    18    3
    22    14    15   ar
    23    15    16   ar
    24     5     6    1
    25     6     7    1
    26    26    27   ar
    27    27    22   ar
    28     7     2    1
    29    16    11   ar
@<TRIPOS>MOLECULE
*****
 27 29 0 0 0
SMALL
GASTEIGER

@<TRIPOS>ATOM
      1 C          63.4788   88.2601   16.3636 C.2     1  UNL1        0.0412
      2 C          63.3833   86.9316   15.6738 C.2     1  UNL1       -0.0331
      3 C          63.8915   86.7766   14.2710 C.3     1  UNL1        0.0418
      4 C          63.7960   85.4481   13.5812 C.3     1  UNL1        0.1002
      5 N          63.1923   84.2745   14.2941 N.3     1  UNL1       -0.1549
      6 C          62.6841   84.4295   15.6969 C.3     1  UNL1        0.1002
      7 C          62.7797   85.7581   16.3867 C.3     1  UNL1        0.0418
      8 S          63.0968   82.9460   13.6043 S.O2    1  UNL1        0.0633
      9 O          63.4427   82.2539   14.8893 O.2     1  UNL1       -0.1528
     10 O          62.7509   83.6381   12.3193 O.2     1  UNL1       -0.1528
     11 C          63.0013   81.6175   12.9145 C.ar    1  UNL1        0.1222
     12 C          62.7140   80.3784   13.7096 C.ar    1  UNL1        0.0206
     13 C          62.6185   79.0499   13.0197 C.ar    1  UNL1        0.0116
     14 C          62.8103   78.9604   11.5348 C.ar    1  UNL1        0.0685
     15 C          63.0975   80.1994   10.7396 C.ar    1  UNL1        0.0116
     16 C          63.1930   81.5280   11.4294 C.ar    1  UNL1        0.0206
     17 C          62.7147   77.6318   10.8449 C.1     1  UNL1        0.1004
     18 N          62.6193   76.3033   10.1550 N.1     1  UNL1       -0.1908
     19 C          64.6863   90.6073   14.9377 C.1     1  UNL1       -0.0405
     20 C          64.0826   89.4337   15.6506 C.1     1  UNL1       -0.0583
     21 C          65.4500   93.3104   10.5662 C.3     1  UNL1        0.0521
     22 C          65.6718   93.1324   12.0390 C.ar    1  UNL1        0.0600
     23 C          66.4973   94.1280   12.7989 C.ar    1  UNL1        0.0148
     24 C          66.7190   93.9500   14.2717 C.ar    1  UNL1        0.0034
     25 C          66.1154   92.7765   14.9846 C.ar    1  UNL1        0.0276
     26 C          65.2900   91.7809   14.2248 C.ar    1  UNL1        0.1224
     27 N          65.0682   91.9589   12.7520 N.ar    1  UNL1       -0.2414
@<TRIPOS>BOND
     1    21    22    1
     2    22    23   ar
     3    23    24   ar
     4    24    25   ar
     5    25    26   ar
     6    26    19    1
     7    19    20    3
     8    20     1    1
     9     1     2    2
    10     2     3    1
    11     3     4    1
    12     4     5    1
    13     5     8    1
    14     8     9    2
    15     8    10    2
    16     8    11    1
    17    11    12   ar
    18    12    13   ar
    19    13    14   ar
    20    14    17    1
    21    17    18    3
    22    14    15   ar
    23    15    16   ar
    24     5     6    1
    25     6     7    1
    26    26    27   ar
    27    27    22   ar
    28     7     2    1
    29    16    11   ar
@<TRIPOS>MOLECULE
*****
 27 29 0 0 0
SMALL
GASTEIGER

@<TRIPOS>ATOM
      1 C          62.8593   85.4469   16.2421 C.2     1  UNL1        0.0412
      2 C          63.3194   86.7145   15.5853 C.2     1  UNL1       -0.0331
      3 C          63.6849   86.7156   14.1306 C.3     1  UNL1        0.0418
      4 C          64.1451   87.9832   13.4738 C.3     1  UNL1        0.1002
      5 N          64.2397   89.2499   14.2718 N.3     1  UNL1       -0.1549
      6 C          63.8742   89.2488   15.7266 C.3     1  UNL1        0.1002
      7 C          63.4140   87.9811   16.3833 C.3     1  UNL1        0.0418
      8 S          64.6998   90.5175   13.6150 S.O2    1  UNL1        0.0633
      9 O          63.8910   90.1803   12.3976 O.2     1  UNL1       -0.1528
     10 O          65.5086   90.8546   14.8324 O.2     1  UNL1       -0.1528
     11 C          65.1599   91.7851   12.9582 C.ar    1  UNL1        0.1222
     12 C          64.8235   92.0498   11.5206 C.ar    1  UNL1        0.0206
     13 C          65.2836   93.3175   10.8639 C.ar    1  UNL1        0.0116
     14 C          66.0802   94.3204   11.6447 C.ar    1  UNL1        0.0685
     15 C          66.4166   94.0557   13.0823 C.ar    1  UNL1        0.0116
     16 C          65.9565   92.7880   13.7391 C.ar    1  UNL1        0.0206
     17 C          66.5403   95.5881   10.9879 C.1     1  UNL1        0.1004
     18 N          67.0005   96.8557   10.3312 N.1     1  UNL1       -0.1908
     19 C          62.6701   82.9137   14.6462 C.1     1  UNL1       -0.0405
     20 C          62.7647   84.1803   15.4441 C.1     1  UNL1       -0.0583
     21 C          63.2312   80.3781   10.1455 C.3     1  UNL1        0.0521
     22 C          62.8560   80.3793   11.5978 C.ar    1  UNL1        0.0600
     23 C          62.3862   79.1140   12.2521 C.ar    1  UNL1        0.0148
     24 C          62.0111   79.1152   13.7045 C.ar    1  UNL1        0.0034
     25 C          62.1057   80.3817   14.5025 C.ar    1  UNL1        0.0276
     26 C          62.5754   81.6471   13.8482 C.ar    1  UNL1        0.1224
     27 N          62.9506   81.6458   12.3958 N.ar    1  UNL1       -0.2414
@<TRIPOS>BOND
     1    21    22    1
     2    22    23   ar
     3    23    24   ar
     4    24    25   ar
     5    25    26   ar
     6    26    19    1
     7    19    20    3
     8    20     1    1
     9     1     2    2
    10     2     3    1
    11     3     4    1
    12     4     5    1
    13     5     8    1
    14     8     9    2
    15     8    10    2
    16     8    11    1
    17    11    12   ar
    18    12    13   ar
    19    13    14   ar
    20    14    17    1
    21    17    18    3
    22    14    15   ar
    23    15    16   ar
    24     5     6    1
    25     6     7    1
    26    26    27   ar
    27    27    22   ar
    28     7     2    1
    29    16    11   ar
@<TRIPOS>MOLECULE
*****
 27 29 0 0 0
SMALL
GASTEIGER

@<TRIPOS>ATOM
      1 C          63.2003   88.1610   16.5582 C.2     1  UNL1        0.0412
      2 C          63.1457   86.8450   15.8404 C.2     1  UNL1       -0.0331
      3 C          63.8393   86.6813   14.5205 C.3     1  UNL1        0.0418
      4 C          63.7847   85.3654   13.8027 C.3     1  UNL1        0.1002
      5 N          63.0364   84.2131   14.4047 N.3     1  UNL1       -0.1549
      6 C          62.3428   84.3768   15.7245 C.3     1  UNL1        0.1002
      7 C          62.3974   85.6928   16.4424 C.3     1  UNL1        0.0418
      8 S          62.9818   82.8972   13.6869 S.O2    1  UNL1        0.0633
      9 O          63.4061   83.5726   12.4165 O.2     1  UNL1       -0.1528
     10 O          62.5575   82.2218   14.9572 O.2     1  UNL1       -0.1528
     11 C          62.9272   81.5813   12.9690 C.ar    1  UNL1        0.1222
     12 C          63.1880   81.5207   11.4931 C.ar    1  UNL1        0.0206
     13 C          63.1334   80.2046   10.7753 C.ar    1  UNL1        0.0116
     14 C          62.8179   78.9494   11.5333 C.ar    1  UNL1        0.0685
     15 C          62.5571   79.0100   13.0093 C.ar    1  UNL1        0.0116
     16 C          62.6117   80.3259   13.7271 C.ar    1  UNL1        0.0206
     17 C          62.7633   77.6334   10.8155 C.1     1  UNL1        0.1004
     18 N          62.7086   76.3174   10.0977 N.1     1  UNL1       -0.1908
     19 C          64.6969   90.4655   15.3542 C.1     1  UNL1       -0.0405
     20 C          63.9486   89.3132   15.9562 C.1     1  UNL1       -0.0583
     21 C          68.3740   94.1199   15.7069 C.3     1  UNL1        0.0521
     22 C          67.2837   93.4449   14.9286 C.ar    1  UNL1        0.0600
     23 C          66.9418   93.9222   13.5483 C.ar    1  UNL1        0.0148
     24 C          65.8515   93.2472   12.7700 C.ar    1  UNL1        0.0034
     25 C          65.1032   92.0950   13.3719 C.ar    1  UNL1        0.0276
     26 C          65.4452   91.6177   14.7522 C.ar    1  UNL1        0.1224
     27 N          66.5354   92.2927   15.5305 N.ar    1  UNL1       -0.2414
@<TRIPOS>BOND
     1    21    22    1
     2    22    23   ar
     3    23    24   ar
     4    24    25   ar
     5    25    26   ar
     6    26    19    1
     7    19    20    3
     8    20     1    1
     9     1     2    2
    10     2     3    1
    11     3     4    1
    12     4     5    1
    13     5     8    1
    14     8     9    2
    15     8    10    2
    16     8    11    1
    17    11    12   ar
    18    12    13   ar
    19    13    14   ar
    20    14    17    1
    21    17    18    3
    22    14    15   ar
    23    15    16   ar
    24     5     6    1
    25     6     7    1
    26    26    27   ar
    27    27    22   ar
    28     7     2    1
    29    16    11   ar
@<TRIPOS>MOLECULE
*****
 27 29 0 0 0
SMALL
GASTEIGER

@<TRIPOS>ATOM
      1 C          60.6294   88.2617    9.5737 C.2     1  UNL1        0.0412
      2 C          61.6806   88.9360   10.4044 C.2     1  UNL1       -0.0331
      3 C          62.1032   90.3393   10.0849 C.3     1  UNL1        0.0418
      4 C          63.1544   91.0136   10.9156 C.3     1  UNL1        0.1002
      5 N          63.7832   90.2846   12.0660 N.3     1  UNL1       -0.1549
      6 C          63.3606   88.8812   12.3855 C.3     1  UNL1        0.1002
      7 C          62.3093   88.2069   11.5547 C.3     1  UNL1        0.0418
      8 S          64.8344   90.9588   12.8967 S.O2    1  UNL1        0.0633
      9 O          64.6104   89.9588   13.9920 O.2     1  UNL1       -0.1528
     10 O          65.0585   91.9589   11.8015 O.2     1  UNL1       -0.1528
     11 C          65.8857   91.6331   13.7275 C.ar    1  UNL1        0.1222
     12 C          65.5847   92.0264   15.1433 C.ar    1  UNL1        0.0206
     13 C          66.6360   92.7008   15.9741 C.ar    1  UNL1        0.0116
     14 C          67.9883   92.9817   15.3890 C.ar    1  UNL1        0.0685
     15 C          68.2893   92.5884   13.9731 C.ar    1  UNL1        0.0116
     16 C          67.2380   91.9141   13.1423 C.ar    1  UNL1        0.0206
     17 C          69.0396   93.6560   16.2197 C.1     1  UNL1        0.1004
     18 N          70.0909   94.3303   17.0504 N.1     1  UNL1       -0.1908
     19 C          59.3719   89.7198    7.2731 C.1     1  UNL1       -0.0405
     20 C          60.0006   88.9908    8.4233 C.1     1  UNL1       -0.0583
     21 C          59.8242   92.7729    3.0928 C.3     1  UNL1        0.0521
     22 C          58.9693   91.9754    4.0326 C.ar    1  UNL1        0.0600
     23 C          57.4858   91.9070    3.8221 C.ar    1  UNL1        0.0148
     24 C          56.6309   91.1095    4.7619 C.ar    1  UNL1        0.0034
     25 C          57.2596   90.3805    5.9122 C.ar    1  UNL1        0.0276
     26 C          58.7432   90.4489    6.1227 C.ar    1  UNL1        0.1224
     27 N          59.5980   91.2464    5.1829 N.ar    1  UNL1       -0.2414
@<TRIPOS>BOND
     1    21    22    1
     2    22    23   ar
     3    23    24   ar
     4    24    25   ar
     5    25    26   ar
     6    26    19    1
     7    19    20    3
     8    20     1    1
     9     1     2    2
    10     2     3    1
    11     3     4    1
    12     4     5    1
    13     5     8    1
    14     8     9    2
    15     8    10    2
    16     8    11    1
    17    11    12   ar
    18    12    13   ar
    19    13    14   ar
    20    14    17    1
    21    17    18    3
    22    14    15   ar
    23    15    16   ar
    24     5     6    1
    25     6     7    1
    26    26    27   ar
    27    27    22   ar
    28     7     2    1
    29    16    11   ar
