@<TRIPOS>MOLECULE
*****
 41 46 0 0 0
SMALL
GASTEIGER

@<TRIPOS>ATOM
      1 O          58.7150   89.7258    7.0614 O.3     1  UNL1       -0.4727
      2 C          60.4873   91.9513    3.5749 C.ar    1  UNL1        0.0481
      3 C          61.3472   91.0373    4.3966 C.ar    1  UNL1        0.0176
      4 C          60.7564   90.2955    5.5588 C.ar    1  UNL1        0.0382
      5 C          59.3057   90.4676    5.8993 C.ar    1  UNL1        0.1388
      6 C          58.4458   91.3816    5.0775 C.ar    1  UNL1        0.0382
      7 C          59.0366   92.1234    3.9154 C.ar    1  UNL1        0.0176
      8 N          62.2594   94.1769    0.0883 N.3     1  UNL1       -0.1516
      9 C          60.7704   94.1087    0.2559 C.3     1  UNL1        0.1172
     10 C          60.1797   93.3668    1.4181 C.3     1  UNL1        0.1099
     11 N          61.0780   92.6932    2.4127 N.pl3   1  UNL1       -0.3045
     12 C          62.5670   92.7614    2.2451 C.3     1  UNL1        0.1099
     13 C          63.1577   93.5033    1.0829 C.3     1  UNL1        0.1172
     14 O          62.3491   93.8564   -2.0067 O.2     1  UNL1       -0.1523
     15 S          62.8501   94.9188   -1.0739 S.O2    1  UNL1        0.0691
     16 O          63.3511   95.9813   -0.1411 O.2     1  UNL1       -0.1523
     17 C          63.4408   95.6606   -2.2361 C.ar    1  UNL1        0.1516
     18 C          64.8886   96.0096   -2.4154 C.ar    1  UNL1        0.0271
     19 C          65.0301   96.7483   -3.7132 C.ar    1  UNL1        0.0089
     20 C          63.6696   96.8560   -4.3359 C.ar    1  UNL1        0.0368
     21 S          62.6875   96.1837   -3.4230 S.2     1  UNL1       -0.0668
     22 C          59.4069   89.7431    8.3922 C.3     1  UNL1        0.2374
     23 C          60.1159   88.5164    8.8849 C.3     1  UNL1        0.1909
     24 C          59.9526   87.1267    8.3443 C.3     1  UNL1        0.1783
     25 O          60.8484   86.2155    9.1299 O.3     1  UNL1       -0.3267
     26 C          61.5654   87.0421   10.1560 C.3     1  UNL1        0.2296
     27 O          61.1126   88.4641   10.0045 O.3     1  UNL1       -0.3255
     28 C          62.1955   85.7357   10.5387 C.ar    1  UNL1        0.0409
     29 C          62.0423   85.2097   11.9351 C.ar    1  UNL1        0.0022
     30 C          62.6724   83.9034   12.3178 C.ar    1  UNL1        0.0113
     31 C          63.4557   83.1231   11.3042 C.ar    1  UNL1        0.0585
     32 CL         64.0858   81.8168   11.6869 Cl      1  UNL1       -0.0822
     33 C          63.6090   83.6491    9.9077 C.ar    1  UNL1        0.0226
     34 C          62.9788   84.9554    9.5251 C.ar    1  UNL1        0.0591
     35 CL         63.1321   85.4814    8.1287 Cl      1  UNL1       -0.0824
     36 C          62.4141   87.5955   11.2621 C.3     1  UNL1        0.1682
     37 N          62.7545   89.0561   11.2872 N.ar    1  UNL1       -0.3025
     38 C          62.8389   89.9209   12.5099 C.ar    1  UNL1        0.0982
     39 C          63.2069   91.3076   12.0724 C.ar    1  UNL1        0.1193
     40 N          63.3499   91.2999   10.5792 N.ar    1  UNL1       -0.2223
     41 C          63.0703   89.9084   10.0940 C.ar    1  UNL1        0.1788
@<TRIPOS>BOND
     1    14    15    2
     2    15    16    2
     3    15    17    1
     4    17    18   ar
     5    18    19   ar
     6    19    20   ar
     7    20    21   ar
     8    15     8    1
     9     8     9    1
    10     9    10    1
    11    10    11    1
    12    11     2    1
    13     2     3   ar
    14     3     4   ar
    15     4     5   ar
    16     5     1    1
    17     1    22    1
    18    23    22    1
    19    23    24    1
    20    24    25    1
    21    25    26    1
    22    26    36    1
    23    36    37    1
    24    37    38   ar
    25    38    39   ar
    26    39    40   ar
    27    40    41   ar
    28    26    28    1
    29    28    29   ar
    30    29    30   ar
    31    30    31   ar
    32    31    32    1
    33    31    33   ar
    34    33    34   ar
    35    34    35    1
    36    26    27    1
    37     5     6   ar
    38     6     7   ar
    39    11    12    1
    40    12    13    1
    41    21    17   ar
    42    13     8    1
    43     7     2   ar
    44    27    23    1
    45    41    37   ar
    46    34    28   ar
@<TRIPOS>MOLECULE
*****
 41 46 0 0 0
SMALL
GASTEIGER

@<TRIPOS>ATOM
      1 O          59.1119   89.7174    7.4992 O.3     1  UNL1       -0.4727
      2 C          60.0957   91.9610    3.7245 C.ar    1  UNL1        0.0481
      3 C          61.1682   91.1995    4.4455 C.ar    1  UNL1        0.0176
      4 C          60.8403   90.4516    5.7038 C.ar    1  UNL1        0.0382
      5 C          59.4398   90.4652    6.2410 C.ar    1  UNL1        0.1388
      6 C          58.3673   91.2267    5.5199 C.ar    1  UNL1        0.0382
      7 C          58.6953   91.9746    4.2617 C.ar    1  UNL1        0.0176
      8 N          61.0793   94.2046   -0.0502 N.3     1  UNL1       -0.1516
      9 C          59.6505   93.9015    0.2914 C.3     1  UNL1        0.1172
     10 C          59.3227   93.1536    1.5496 C.3     1  UNL1        0.1099
     11 N          60.4236   92.7089    2.4662 N.pl3   1  UNL1       -0.3045
     12 C          61.8524   93.0120    2.1246 C.3     1  UNL1        0.1099
     13 C          62.1802   93.7599    0.8664 C.3     1  UNL1        0.1172
     14 O          62.6434   94.1207   -1.4807 O.2     1  UNL1       -0.1523
     15 S          61.4072   94.9526   -1.3085 S.O2    1  UNL1        0.0691
     16 O          60.1710   95.7844   -1.1363 O.2     1  UNL1       -0.1523
     17 C          61.7351   95.7004   -2.5667 C.ar    1  UNL1        0.1516
     18 C          60.7545   96.1339   -3.6157 C.ar    1  UNL1        0.0271
     19 C          61.5146   96.8475   -4.6942 C.ar    1  UNL1        0.0089
     20 C          62.9650   96.8550   -4.3117 C.ar    1  UNL1        0.0368
     21 S          63.1013   96.1460   -2.9968 S.2     1  UNL1       -0.0668
     22 C          59.7489   90.1173    8.7970 C.3     1  UNL1        0.2374
     23 C          60.3926   89.0793    9.6678 C.3     1  UNL1        0.1909
     24 C          60.1351   88.8731   11.1311 C.3     1  UNL1        0.1783
     25 O          60.9901   87.7317   11.5959 O.3     1  UNL1       -0.3267
     26 C          61.7760   87.2324   10.4198 C.3     1  UNL1        0.2296
     27 O          61.4067   88.0652    9.2282 O.3     1  UNL1       -0.3255
     28 C          62.3340   86.2523   11.4088 C.ar    1  UNL1        0.0409
     29 C          62.0250   84.7908   11.2723 C.ar    1  UNL1        0.0022
     30 C          62.5830   83.8107   12.2613 C.ar    1  UNL1        0.0113
     31 C          63.4499   84.2920   13.3867 C.ar    1  UNL1        0.0585
     32 CL         64.0079   83.3119   14.3757 Cl      1  UNL1       -0.0822
     33 C          63.7589   85.7536   13.5232 C.ar    1  UNL1        0.0226
     34 C          63.2009   86.7337   12.5343 C.ar    1  UNL1        0.0591
     35 CL         63.5099   88.1951   12.6708 Cl      1  UNL1       -0.0824
     36 C          62.6786   86.5282    9.4505 C.3     1  UNL1        0.1682
     37 N          62.0967   85.8155    8.2658 N.ar    1  UNL1       -0.3025
     38 C          62.8311   84.8808    7.3510 C.ar    1  UNL1        0.0982
     39 C          61.8666   84.4000    6.3078 C.ar    1  UNL1        0.1193
     40 N          60.5360   85.0375    6.5778 N.ar    1  UNL1       -0.2223
     41 C          60.6782   85.9124    7.7879 C.ar    1  UNL1        0.1788
@<TRIPOS>BOND
     1    14    15    2
     2    15    16    2
     3    15    17    1
     4    17    18   ar
     5    18    19   ar
     6    19    20   ar
     7    20    21   ar
     8    15     8    1
     9     8     9    1
    10     9    10    1
    11    10    11    1
    12    11     2    1
    13     2     3   ar
    14     3     4   ar
    15     4     5   ar
    16     5     1    1
    17     1    22    1
    18    23    22    1
    19    23    24    1
    20    24    25    1
    21    25    26    1
    22    26    36    1
    23    36    37    1
    24    37    38   ar
    25    38    39   ar
    26    39    40   ar
    27    40    41   ar
    28    26    28    1
    29    28    29   ar
    30    29    30   ar
    31    30    31   ar
    32    31    32    1
    33    31    33   ar
    34    33    34   ar
    35    34    35    1
    36    26    27    1
    37     5     6   ar
    38     6     7   ar
    39    11    12    1
    40    12    13    1
    41    21    17   ar
    42    13     8    1
    43     7     2   ar
    44    27    23    1
    45    41    37   ar
    46    34    28   ar
@<TRIPOS>MOLECULE
*****
 41 46 0 0 0
SMALL
GASTEIGER

@<TRIPOS>ATOM
      1 O          64.2633   91.6940   16.8459 O.3     1  UNL1       -0.4727
      2 C          63.7945   87.6607   14.9062 C.ar    1  UNL1        0.0481
      3 C          63.0825   87.9620   16.1915 C.ar    1  UNL1        0.0176
      4 C          63.2387   89.3065   16.8382 C.ar    1  UNL1        0.0382
      5 C          64.1070   90.3496   16.1994 C.ar    1  UNL1        0.1388
      6 C          64.8191   90.0481   14.9139 C.ar    1  UNL1        0.0382
      7 C          64.6628   88.7037   14.2674 C.ar    1  UNL1        0.0176
      8 N          63.3258   83.6273   12.9665 N.3     1  UNL1       -0.1516
      9 C          63.8301   83.7278   14.3755 C.3     1  UNL1        0.1172
     10 C          63.9863   85.0722   15.0221 C.3     1  UNL1        0.1099
     11 N          63.6382   86.3162   14.2596 N.pl3   1  UNL1       -0.3045
     12 C          63.1339   86.2157   12.8505 C.3     1  UNL1        0.1099
     13 C          62.9777   84.8713   12.2039 C.3     1  UNL1        0.1172
     14 O          61.9891   81.9968   13.2000 O.2     1  UNL1       -0.1523
     15 S          63.1695   82.2829   12.3198 S.O2    1  UNL1        0.0691
     16 O          64.3499   82.5689   11.4397 O.2     1  UNL1       -0.1523
     17 C          63.0132   80.9385   11.6733 C.ar    1  UNL1        0.1516
     18 C          63.1835   80.6368   10.2138 C.ar    1  UNL1        0.0271
     19 C          62.9347   79.1716   10.0112 C.ar    1  UNL1        0.0089
     20 C          62.6107   78.5676   11.3455 C.ar    1  UNL1        0.0368
     21 S          62.6592   79.6596   12.3727 S.2     1  UNL1       -0.0668
     22 C          65.4936   92.5121   16.5871 C.3     1  UNL1        0.2374
     23 C          66.0345   92.6329   15.1932 C.3     1  UNL1        0.1909
     24 C          67.4784   92.5420   14.7969 C.3     1  UNL1        0.1783
     25 O          67.5629   92.7186   13.3097 O.3     1  UNL1       -0.3267
     26 C          66.1712   92.9187   12.7869 C.3     1  UNL1        0.2296
     27 O          65.2266   92.8656   13.9510 O.3     1  UNL1       -0.3255
     28 C          66.8546   93.0178   11.4554 C.ar    1  UNL1        0.0409
     29 C          67.5940   91.8358   10.9021 C.ar    1  UNL1        0.0022
     30 C          68.2776   91.9349    9.5705 C.ar    1  UNL1        0.0113
     31 C          68.2217   93.2160    8.7923 C.ar    1  UNL1        0.0585
     32 CL         68.9052   93.3151    7.4608 Cl      1  UNL1       -0.0822
     33 C          67.4823   94.3981    9.3457 C.ar    1  UNL1        0.0226
     34 C          66.7988   94.2990   10.6772 C.ar    1  UNL1        0.0591
     35 CL         66.0594   95.4810   11.2306 Cl      1  UNL1       -0.0824
     36 C          64.9224   93.1394   11.9858 C.3     1  UNL1        0.1682
     37 N          64.0917   91.9676   11.5534 N.ar    1  UNL1       -0.3025
     38 C          63.3553   91.0265   12.4599 C.ar    1  UNL1        0.0982
     39 C          62.6601   90.0085   11.6054 C.ar    1  UNL1        0.1193
     40 N          62.9669   90.3204   10.1706 N.ar    1  UNL1       -0.2223
     41 C          63.8517   91.5313   10.1385 C.ar    1  UNL1        0.1788
@<TRIPOS>BOND
     1    14    15    2
     2    15    16    2
     3    15    17    1
     4    17    18   ar
     5    18    19   ar
     6    19    20   ar
     7    20    21   ar
     8    15     8    1
     9     8     9    1
    10     9    10    1
    11    10    11    1
    12    11     2    1
    13     2     3   ar
    14     3     4   ar
    15     4     5   ar
    16     5     1    1
    17     1    22    1
    18    23    22    1
    19    23    24    1
    20    24    25    1
    21    25    26    1
    22    26    36    1
    23    36    37    1
    24    37    38   ar
    25    38    39   ar
    26    39    40   ar
    27    40    41   ar
    28    26    28    1
    29    28    29   ar
    30    29    30   ar
    31    30    31   ar
    32    31    32    1
    33    31    33   ar
    34    33    34   ar
    35    34    35    1
    36    26    27    1
    37     5     6   ar
    38     6     7   ar
    39    11    12    1
    40    12    13    1
    41    21    17   ar
    42    13     8    1
    43     7     2   ar
    44    27    23    1
    45    41    37   ar
    46    34    28   ar
@<TRIPOS>MOLECULE
*****
 41 46 0 0 0
SMALL
GASTEIGER

@<TRIPOS>ATOM
      1 O          58.3690   91.2952    4.5629 O.3     1  UNL1       -0.4727
      2 C          60.2099   88.8093    7.8311 C.ar    1  UNL1        0.0481
      3 C          58.8152   88.5179    7.3624 C.ar    1  UNL1        0.0176
      4 C          58.2015   89.3465    6.2729 C.ar    1  UNL1        0.0382
      5 C          58.9826   90.4666    5.6522 C.ar    1  UNL1        0.1388
      6 C          60.3774   90.7580    6.1210 C.ar    1  UNL1        0.0382
      7 C          60.9910   89.9294    7.2104 C.ar    1  UNL1        0.0176
      8 N          62.0509   86.3234   11.0992 N.3     1  UNL1       -0.1516
      9 C          61.2347   85.6659   10.0262 C.3     1  UNL1        0.1172
     10 C          60.6211   86.4945    8.9368 C.3     1  UNL1        0.1099
     11 N          60.8236   87.9807    8.9205 N.pl3   1  UNL1       -0.3045
     12 C          61.6397   88.6382    9.9936 C.3     1  UNL1        0.1099
     13 C          62.2534   87.8096   11.0829 C.3     1  UNL1        0.1172
     14 O          63.1401   86.7433   12.8704 O.2     1  UNL1       -0.1523
     15 S          62.6645   85.4947   12.1887 S.O2    1  UNL1        0.0691
     16 O          62.1890   84.2462   11.5069 O.2     1  UNL1       -0.1523
     17 C          63.2782   84.6662   13.2781 C.ar    1  UNL1        0.1516
     18 C          64.2545   85.1491   14.3095 C.ar    1  UNL1        0.0271
     19 C          64.6030   83.9906   15.1962 C.ar    1  UNL1        0.0089
     20 C          63.8421   82.7916   14.7128 C.ar    1  UNL1        0.0368
     21 S          63.0234   83.2092   13.5274 S.2     1  UNL1       -0.0668
     22 C          58.8740   92.6832    4.3015 C.3     1  UNL1        0.2374
     23 C          59.7554   92.9501    3.1175 C.3     1  UNL1        0.1909
     24 C          61.1324   92.3961    2.9006 C.3     1  UNL1        0.1783
     25 O          61.6426   92.9214    1.5915 O.3     1  UNL1       -0.3267
     26 C          60.5809   93.8002    0.9993 C.3     1  UNL1        0.2296
     27 O          59.4146   93.8179    1.9424 O.3     1  UNL1       -0.3255
     28 C          61.5685   93.9737   -0.1163 C.ar    1  UNL1        0.0409
     29 C          61.4666   93.1226   -1.3472 C.ar    1  UNL1        0.0022
     30 C          62.4542   93.2961   -2.4629 C.ar    1  UNL1        0.0113
     31 C          63.5435   94.3207   -2.3476 C.ar    1  UNL1        0.0585
     32 CL         64.5311   94.4942   -3.4633 Cl      1  UNL1       -0.0822
     33 C          63.6455   95.1719   -1.1166 C.ar    1  UNL1        0.0226
     34 C          62.6579   94.9984   -0.0010 C.ar    1  UNL1        0.0591
     35 CL         62.7598   95.8495    1.2299 Cl      1  UNL1       -0.0824
     36 C          59.7257   94.7152    0.1739 C.3     1  UNL1        0.1682
     37 N          58.4397   94.2134   -0.4130 N.ar    1  UNL1       -0.3025
     38 C          57.3790   95.0533   -1.0605 C.ar    1  UNL1        0.0982
     39 C          56.2724   94.1426   -1.5030 C.ar    1  UNL1        0.1193
     40 N          56.6492   92.7397   -1.1290 N.ar    1  UNL1       -0.2223
     41 C          57.9887   92.7834   -0.4553 C.ar    1  UNL1        0.1788
@<TRIPOS>BOND
     1    14    15    2
     2    15    16    2
     3    15    17    1
     4    17    18   ar
     5    18    19   ar
     6    19    20   ar
     7    20    21   ar
     8    15     8    1
     9     8     9    1
    10     9    10    1
    11    10    11    1
    12    11     2    1
    13     2     3   ar
    14     3     4   ar
    15     4     5   ar
    16     5     1    1
    17     1    22    1
    18    23    22    1
    19    23    24    1
    20    24    25    1
    21    25    26    1
    22    26    36    1
    23    36    37    1
    24    37    38   ar
    25    38    39   ar
    26    39    40   ar
    27    40    41   ar
    28    26    28    1
    29    28    29   ar
    30    29    30   ar
    31    30    31   ar
    32    31    32    1
    33    31    33   ar
    34    33    34   ar
    35    34    35    1
    36    26    27    1
    37     5     6   ar
    38     6     7   ar
    39    11    12    1
    40    12    13    1
    41    21    17   ar
    42    13     8    1
    43     7     2   ar
    44    27    23    1
    45    41    37   ar
    46    34    28   ar
