@<TRIPOS>MOLECULE
*****
 29 32 0 0 0
SMALL
GASTEIGER

@<TRIPOS>ATOM
      1 S          64.4959   85.2035   14.5729 S.3     1  UNL1       -0.0653
      2 C          64.1008   83.7776   14.3270 C.ar    1  UNL1        0.1973
      3 N          64.3097   82.6296   15.2696 N.ar    1  UNL1       -0.1221
      4 N          63.7654   81.3917   14.6205 N.ar    1  UNL1       -0.1325
      5 C          63.2200   81.7746   13.2766 C.ar    1  UNL1        0.1479
      6 C          62.5798   80.8461   12.2878 C.3     1  UNL1        0.0742
      7 N          63.4273   83.2492   13.0952 N.ar    1  UNL1       -0.2724
      8 C          63.0307   84.0539   11.8931 C.ar    1  UNL1        0.0671
      9 C          62.0432   85.1743   12.0332 C.ar    1  UNL1        0.0207
     10 C          61.6466   85.9790   10.8311 C.ar    1  UNL1        0.0384
     11 C          62.2375   85.6636    9.4889 C.ar    1  UNL1        0.1388
     12 C          63.2251   84.5432    9.3489 C.ar    1  UNL1        0.0384
     13 C          63.6217   83.7384   10.5510 C.ar    1  UNL1        0.0207
     14 O          61.8409   86.4684    8.2868 O.3     1  UNL1       -0.4714
     15 C          60.4561   86.3431    7.7241 C.3     1  UNL1        0.2525
     16 C          63.7739   86.0139   15.6083 C.3     1  UNL1        0.1528
     17 C          64.2954   89.7839   14.8462 C.ar    1  UNL1        0.2033
     18 N          63.3068   89.8498   15.9724 N.ar    1  UNL1       -0.0560
     19 O          62.9911   88.4456   16.3949 O.2     1  UNL1       -0.3361
     20 C          63.7846   87.5118   15.5299 C.ar    1  UNL1        0.2480
     21 N          64.5907   88.3389   14.5728 N.ar    1  UNL1       -0.1900
     22 C          66.0648   93.3030   12.6702 C.ar    1  UNL1        0.1387
     23 C          65.0936   92.3993   11.9701 C.ar    1  UNL1        0.0370
     24 C          64.5038   91.2263   12.6954 C.ar    1  UNL1        0.0063
     25 C          64.8852   90.9569   14.1209 C.ar    1  UNL1        0.0393
     26 C          65.8564   91.8605   14.8209 C.ar    1  UNL1        0.0063
     27 C          66.4462   93.0336   14.0956 C.ar    1  UNL1        0.0370
     28 C          65.8626   95.1745   10.8795 C.3     1  UNL1        0.2525
     29 O          66.6545   94.4760   11.9448 O.3     1  UNL1       -0.4714
@<TRIPOS>BOND
     1    28    29    1
     2    29    22    1
     3    22    23   ar
     4    23    24   ar
     5    24    25   ar
     6    25    17    1
     7    17    18   ar
     8    18    19   ar
     9    19    20   ar
    10    20    16    1
    11    16     1    1
    12     1     2    1
    13     2     3   ar
    14     3     4   ar
    15     4     5   ar
    16     5     6    1
    17     5     7   ar
    18     7     8    1
    19     8     9   ar
    20     9    10   ar
    21    10    11   ar
    22    11    14    1
    23    14    15    1
    24    11    12   ar
    25    12    13   ar
    26    20    21   ar
    27    25    26   ar
    28    26    27   ar
    29    27    22   ar
    30    21    17   ar
    31     7     2   ar
    32    13     8   ar
@<TRIPOS>MOLECULE
*****
 29 32 0 0 0
SMALL
GASTEIGER

@<TRIPOS>ATOM
      1 S          62.6060   90.7294   11.6560 S.3     1  UNL1       -0.0653
      2 C          63.9496   91.2839   12.0262 C.ar    1  UNL1        0.1973
      3 N          64.7744   92.2237   11.1977 N.ar    1  UNL1       -0.1221
      4 N          66.0390   92.5166   11.9494 N.ar    1  UNL1       -0.1325
      5 C          65.9958   91.7576   13.2426 C.ar    1  UNL1        0.1479
      6 C          67.0575   91.7601   14.3021 C.3     1  UNL1        0.0742
      7 N          64.7045   90.9958   13.2900 N.ar    1  UNL1       -0.2724
      8 C          64.2483   90.1028   14.4055 C.ar    1  UNL1        0.0671
      9 C          63.6551   90.6981   15.6480 C.ar    1  UNL1        0.0207
     10 C          63.1989   89.8050   16.7634 C.ar    1  UNL1        0.0384
     11 C          63.3357   88.3167   16.6365 C.ar    1  UNL1        0.1388
     12 C          63.9289   87.7214   15.3939 C.ar    1  UNL1        0.0384
     13 C          64.3851   88.6144   14.2785 C.ar    1  UNL1        0.0207
     14 O          62.8795   87.4236   17.7520 O.3     1  UNL1       -0.4714
     15 C          62.4205   86.0268   17.4544 C.3     1  UNL1        0.2525
     16 C          62.4265   90.0040   10.3554 C.3     1  UNL1        0.1528
     17 C          62.2504   86.1820   11.0088 C.ar    1  UNL1        0.2033
     18 N          61.6020   86.2756    9.6594 N.ar    1  UNL1       -0.0560
     19 O          61.5891   87.7187    9.2504 O.2     1  UNL1       -0.3361
     20 C          62.2294   88.5170   10.3470 C.ar    1  UNL1        0.2480
     21 N          62.6381   87.5673   11.4337 N.ar    1  UNL1       -0.1900
     22 C          62.9154   82.4081   13.3679 C.ar    1  UNL1        0.1387
     23 C          62.7368   83.7161   14.0800 C.ar    1  UNL1        0.0370
     24 C          62.5152   84.9741   13.2937 C.ar    1  UNL1        0.0063
     25 C          62.4720   84.9240   11.7951 C.ar    1  UNL1        0.0393
     26 C          62.6506   83.6160   11.0830 C.ar    1  UNL1        0.0063
     27 C          62.8723   82.3581   11.8693 C.ar    1  UNL1        0.0370
     28 C          62.4762   79.8729   13.7279 C.3     1  UNL1        0.2525
     29 O          63.1371   81.1501   14.1542 O.3     1  UNL1       -0.4714
@<TRIPOS>BOND
     1    28    29    1
     2    29    22    1
     3    22    23   ar
     4    23    24   ar
     5    24    25   ar
     6    25    17    1
     7    17    18   ar
     8    18    19   ar
     9    19    20   ar
    10    20    16    1
    11    16     1    1
    12     1     2    1
    13     2     3   ar
    14     3     4   ar
    15     4     5   ar
    16     5     6    1
    17     5     7   ar
    18     7     8    1
    19     8     9   ar
    20     9    10   ar
    21    10    11   ar
    22    11    14    1
    23    14    15    1
    24    11    12   ar
    25    12    13   ar
    26    20    21   ar
    27    25    26   ar
    28    26    27   ar
    29    27    22   ar
    30    21    17   ar
    31     7     2   ar
    32    13     8   ar
@<TRIPOS>MOLECULE
*****
 29 32 0 0 0
SMALL
GASTEIGER

@<TRIPOS>ATOM
      1 S          64.2323   91.5940   11.7197 S.3     1  UNL1       -0.0653
      2 C          65.2786   92.1628   12.6316 C.ar    1  UNL1        0.1973
      3 N          66.2594   93.2429   12.2830 N.ar    1  UNL1       -0.1221
      4 N          67.1148   93.4990   13.4882 N.ar    1  UNL1       -0.1325
      5 C          66.6627   92.5771   14.5819 C.ar    1  UNL1        0.1479
      6 C          67.2434   92.4954   15.9624 C.3     1  UNL1        0.0742
      7 N          65.5279   91.7513   14.0524 N.ar    1  UNL1       -0.2724
      8 C          64.7746   90.6989   14.8106 C.ar    1  UNL1        0.0671
      9 C          64.8532   89.2640   14.3806 C.ar    1  UNL1        0.0207
     10 C          64.0999   88.2115   15.1389 C.ar    1  UNL1        0.0384
     11 C          63.2681   88.5939   16.3271 C.ar    1  UNL1        0.1388
     12 C          63.1895   90.0289   16.7571 C.ar    1  UNL1        0.0384
     13 C          63.9428   91.0813   15.9988 C.ar    1  UNL1        0.0207
     14 O          62.5148   87.5414   17.0853 O.3     1  UNL1       -0.4714
     15 C          62.8603   86.0933   16.9020 C.3     1  UNL1        0.2525
     16 C          62.8618   91.2901   12.2482 C.3     1  UNL1        0.1528
     17 C          61.4299   88.1607   10.4532 C.ar    1  UNL1        0.2033
     18 N          60.6107   88.1744   11.7097 N.ar    1  UNL1       -0.0560
     19 O          61.0474   89.3483   12.5350 O.2     1  UNL1       -0.3361
     20 C          62.1364   90.0602   11.7886 C.ar    1  UNL1        0.2480
     21 N          62.3728   89.3262   10.5020 N.ar    1  UNL1       -0.1900
     22 C          61.1140   85.1516    7.1222 C.ar    1  UNL1        0.1387
     23 C          59.9229   85.9822    7.4980 C.ar    1  UNL1        0.0370
     24 C          60.0282   86.9852    8.6084 C.ar    1  UNL1        0.0063
     25 C          61.3246   87.1576    9.3429 C.ar    1  UNL1        0.0393
     26 C          62.5157   86.3270    8.9671 C.ar    1  UNL1        0.0063
     27 C          62.4104   85.3240    7.8568 C.ar    1  UNL1        0.0370
     28 C          62.0369   84.1276    4.9200 C.3     1  UNL1        0.2525
     29 O          61.0087   84.1485    6.0119 O.3     1  UNL1       -0.4714
@<TRIPOS>BOND
     1    28    29    1
     2    29    22    1
     3    22    23   ar
     4    23    24   ar
     5    24    25   ar
     6    25    17    1
     7    17    18   ar
     8    18    19   ar
     9    19    20   ar
    10    20    16    1
    11    16     1    1
    12     1     2    1
    13     2     3   ar
    14     3     4   ar
    15     4     5   ar
    16     5     6    1
    17     5     7   ar
    18     7     8    1
    19     8     9   ar
    20     9    10   ar
    21    10    11   ar
    22    11    14    1
    23    14    15    1
    24    11    12   ar
    25    12    13   ar
    26    20    21   ar
    27    25    26   ar
    28    26    27   ar
    29    27    22   ar
    30    21    17   ar
    31     7     2   ar
    32    13     8   ar
@<TRIPOS>MOLECULE
*****
 29 32 0 0 0
SMALL
GASTEIGER

@<TRIPOS>ATOM
      1 S          64.1789   91.0051   13.2057 S.3     1  UNL1       -0.0653
      2 C          65.1198   91.6738   14.1635 C.ar    1  UNL1        0.1973
      3 N          65.1427   91.4878   15.6518 N.ar    1  UNL1       -0.1221
      4 N          66.2401   92.3450   16.2093 N.ar    1  UNL1       -0.1325
      5 C          66.8955   93.0609   15.0655 C.ar    1  UNL1        0.1479
      6 C          68.0420   94.0226   15.1681 C.3     1  UNL1        0.0742
      7 N          66.2031   92.6460   13.8012 N.ar    1  UNL1       -0.2724
      8 C          66.5357   93.1201   12.4175 C.ar    1  UNL1        0.0671
      9 C          67.2573   92.2117   11.4667 C.ar    1  UNL1        0.0207
     10 C          67.5899   92.6859   10.0830 C.ar    1  UNL1        0.0384
     11 C          67.2009   94.0683    9.6501 C.ar    1  UNL1        0.1388
     12 C          66.4792   94.9767   10.6010 C.ar    1  UNL1        0.0384
     13 C          66.1466   94.5026   11.9846 C.ar    1  UNL1        0.0207
     14 O          67.5335   94.5425    8.2664 O.3     1  UNL1       -0.4714
     15 C          66.9183   95.8044    7.7380 C.3     1  UNL1        0.2525
     16 C          63.0110   90.2207   13.7262 C.3     1  UNL1        0.1528
     17 C          61.1908   88.2194   10.9428 C.ar    1  UNL1        0.2033
     18 N          60.0305   88.8595   11.6456 N.ar    1  UNL1       -0.0560
     19 O          60.5711   89.6871   12.7738 O.2     1  UNL1       -0.3361
     20 C          62.0655   89.5585   12.7683 C.ar    1  UNL1        0.2480
     21 N          62.4486   88.6515   11.6367 N.ar    1  UNL1       -0.1900
     22 C          60.9423   85.4836    7.3786 C.ar    1  UNL1        0.1387
     23 C          62.2232   85.5941    8.1514 C.ar    1  UNL1        0.0370
     24 C          62.3060   86.5061    9.3394 C.ar    1  UNL1        0.0063
     25 C          61.1080   87.3075    9.7547 C.ar    1  UNL1        0.0393
     26 C          59.8272   87.1969    8.9820 C.ar    1  UNL1        0.0063
     27 C          59.7444   86.2850    7.7939 C.ar    1  UNL1        0.0370
     28 C          62.1071   84.1863    5.4524 C.3     1  UNL1        0.2525
     29 O          60.8595   84.5716    6.1906 O.3     1  UNL1       -0.4714
@<TRIPOS>BOND
     1    28    29    1
     2    29    22    1
     3    22    23   ar
     4    23    24   ar
     5    24    25   ar
     6    25    17    1
     7    17    18   ar
     8    18    19   ar
     9    19    20   ar
    10    20    16    1
    11    16     1    1
    12     1     2    1
    13     2     3   ar
    14     3     4   ar
    15     4     5   ar
    16     5     6    1
    17     5     7   ar
    18     7     8    1
    19     8     9   ar
    20     9    10   ar
    21    10    11   ar
    22    11    14    1
    23    14    15    1
    24    11    12   ar
    25    12    13   ar
    26    20    21   ar
    27    25    26   ar
    28    26    27   ar
    29    27    22   ar
    30    21    17   ar
    31     7     2   ar
    32    13     8   ar
@<TRIPOS>MOLECULE
*****
 29 32 0 0 0
SMALL
GASTEIGER

@<TRIPOS>ATOM
      1 S          63.4861   89.3884   14.8306 S.3     1  UNL1       -0.0653
      2 C          64.0278   90.4454   13.9147 C.ar    1  UNL1        0.1973
      3 N          65.0273   91.5021   14.2814 N.ar    1  UNL1       -0.1221
      4 N          65.2824   92.3412   13.0645 N.ar    1  UNL1       -0.1325
      5 C          64.4406   91.8031   11.9456 C.ar    1  UNL1        0.1479
      6 C          64.3841   92.3420   10.5470 C.3     1  UNL1        0.0742
      7 N          63.6652   90.6314   12.4711 N.ar    1  UNL1       -0.2724
      8 C          62.6973   89.7930   11.6900 C.ar    1  UNL1        0.0671
      9 C          62.8751   88.3050   11.6267 C.ar    1  UNL1        0.0207
     10 C          61.9071   87.4666   10.8456 C.ar    1  UNL1        0.0384
     11 C          60.7613   88.1161   10.1279 C.ar    1  UNL1        0.1388
     12 C          60.5834   89.6043   10.1913 C.ar    1  UNL1        0.0384
     13 C          61.5514   90.4427   10.9724 C.ar    1  UNL1        0.0207
     14 O          59.7933   87.2777    9.3468 O.3     1  UNL1       -0.4714
     15 C          60.2751   86.4657    8.1813 C.3     1  UNL1        0.2525
     16 C          64.3113   88.1768   15.1487 C.3     1  UNL1        0.1528
     17 C          63.0564   84.5695   14.4574 C.ar    1  UNL1        0.2033
     18 N          62.3711   84.8707   15.7573 N.ar    1  UNL1       -0.0560
     19 O          62.7578   86.2587   16.1745 O.2     1  UNL1       -0.3361
     20 C          63.6821   86.8153   15.1324 C.ar    1  UNL1        0.2480
     21 N          63.8666   85.7713   14.0713 N.ar    1  UNL1       -0.1900
     22 C          62.7376   80.7339   12.1258 C.ar    1  UNL1        0.1387
     23 C          63.3059   81.9610   11.4769 C.ar    1  UNL1        0.0370
     24 C          63.4121   83.2396   12.2541 C.ar    1  UNL1        0.0063
     25 C          62.9502   83.2909   13.6802 C.ar    1  UNL1        0.0393
     26 C          62.3819   82.0638   14.3292 C.ar    1  UNL1        0.0063
     27 C          62.2757   80.7853   13.5519 C.ar    1  UNL1        0.0370
     28 C          62.8773   79.4545    9.8689 C.3     1  UNL1        0.2525
     29 O          62.6314   79.4553   11.3486 O.3     1  UNL1       -0.4714
@<TRIPOS>BOND
     1    28    29    1
     2    29    22    1
     3    22    23   ar
     4    23    24   ar
     5    24    25   ar
     6    25    17    1
     7    17    18   ar
     8    18    19   ar
     9    19    20   ar
    10    20    16    1
    11    16     1    1
    12     1     2    1
    13     2     3   ar
    14     3     4   ar
    15     4     5   ar
    16     5     6    1
    17     5     7   ar
    18     7     8    1
    19     8     9   ar
    20     9    10   ar
    21    10    11   ar
    22    11    14    1
    23    14    15    1
    24    11    12   ar
    25    12    13   ar
    26    20    21   ar
    27    25    26   ar
    28    26    27   ar
    29    27    22   ar
    30    21    17   ar
    31     7     2   ar
    32    13     8   ar
@<TRIPOS>MOLECULE
*****
 29 32 0 0 0
SMALL
GASTEIGER

@<TRIPOS>ATOM
      1 S          64.1746   91.4152   11.6573 S.3     1  UNL1       -0.0653
      2 C          65.0997   92.1219   12.6030 C.ar    1  UNL1        0.1973
      3 N          65.9673   93.3000   12.2724 N.ar    1  UNL1       -0.1221
      4 N          66.7235   93.6809   13.5106 N.ar    1  UNL1       -0.1325
      5 C          66.3232   92.7382   14.6066 C.ar    1  UNL1        0.1479
      6 C          66.8364   92.7559   16.0159 C.3     1  UNL1        0.0742
      7 N          65.3197   91.7747   14.0456 N.ar    1  UNL1       -0.2724
      8 C          64.6531   90.6597   14.7957 C.ar    1  UNL1        0.0671
      9 C          64.8714   89.2368   14.3742 C.ar    1  UNL1        0.0207
     10 C          64.2049   88.1218   15.1243 C.ar    1  UNL1        0.0384
     11 C          63.3201   88.4297   16.2957 C.ar    1  UNL1        0.1388
     12 C          63.1018   89.8527   16.7172 C.ar    1  UNL1        0.0384
     13 C          63.7683   90.9677   15.9671 C.ar    1  UNL1        0.0207
     14 O          62.6535   87.3147   17.0458 O.3     1  UNL1       -0.4714
     15 C          63.1316   85.9035   16.8725 C.3     1  UNL1        0.2525
     16 C          62.7904   91.0432   12.0998 C.3     1  UNL1        0.1528
     17 C          62.1029   87.2562   11.5985 C.ar    1  UNL1        0.2033
     18 N          60.7812   87.8455   11.2037 N.ar    1  UNL1       -0.0560
     19 O          60.8779   89.3358   11.3434 O.2     1  UNL1       -0.3361
     20 C          62.2593   89.6676   11.8246 C.ar    1  UNL1        0.2480
     21 N          63.0164   88.3823   11.9823 N.ar    1  UNL1       -0.1900
     22 C          63.1445   82.8785   11.6269 C.ar    1  UNL1        0.1387
     23 C          63.0442   83.6171   10.3253 C.ar    1  UNL1        0.0370
     24 C          62.6970   85.0764   10.3158 C.ar    1  UNL1        0.0063
     25 C          62.4501   85.7969   11.6080 C.ar    1  UNL1        0.0393
     26 C          62.5504   85.0583   12.9096 C.ar    1  UNL1        0.0063
     27 C          62.8976   83.5991   12.9191 C.ar    1  UNL1        0.0370
     28 C          62.7413   80.4755   12.5286 C.3     1  UNL1        0.2525
     29 O          63.4917   81.4192   11.6364 O.3     1  UNL1       -0.4714
@<TRIPOS>BOND
     1    28    29    1
     2    29    22    1
     3    22    23   ar
     4    23    24   ar
     5    24    25   ar
     6    25    17    1
     7    17    18   ar
     8    18    19   ar
     9    19    20   ar
    10    20    16    1
    11    16     1    1
    12     1     2    1
    13     2     3   ar
    14     3     4   ar
    15     4     5   ar
    16     5     6    1
    17     5     7   ar
    18     7     8    1
    19     8     9   ar
    20     9    10   ar
    21    10    11   ar
    22    11    14    1
    23    14    15    1
    24    11    12   ar
    25    12    13   ar
    26    20    21   ar
    27    25    26   ar
    28    26    27   ar
    29    27    22   ar
    30    21    17   ar
    31     7     2   ar
    32    13     8   ar
@<TRIPOS>MOLECULE
*****
 29 32 0 0 0
SMALL
GASTEIGER

@<TRIPOS>ATOM
      1 S          63.0175   90.2355   15.8148 S.3     1  UNL1       -0.0653
      2 C          64.0371   91.0813   15.1114 C.ar    1  UNL1        0.1973
      3 N          64.9761   92.0538   15.7615 N.ar    1  UNL1       -0.1221
      4 N          65.8161   92.6767   14.6862 N.ar    1  UNL1       -0.1325
      5 C          65.3963   92.0892   13.3713 C.ar    1  UNL1        0.1479
      6 C          65.9744   92.4282   12.0295 C.3     1  UNL1        0.0742
      7 N          64.2968   91.1032   13.6342 N.ar    1  UNL1       -0.2724
      8 C          63.5825   90.2831   12.6011 C.ar    1  UNL1        0.0671
      9 C          62.9388   90.9545   11.4243 C.ar    1  UNL1        0.0207
     10 C          62.2245   90.1344   10.3913 C.ar    1  UNL1        0.0384
     11 C          62.1538   88.6429   10.5349 C.ar    1  UNL1        0.1388
     12 C          62.7976   87.9716   11.7118 C.ar    1  UNL1        0.0384
     13 C          63.5119   88.7917   12.7449 C.ar    1  UNL1        0.0207
     14 O          61.4395   87.8229    9.5019 O.3     1  UNL1       -0.4714
     15 C          62.0684   86.5670    8.9752 C.3     1  UNL1        0.2525
     16 C          63.4456   89.2905   16.8982 C.3     1  UNL1        0.1528
     17 C          63.0055   85.5776   15.8559 C.ar    1  UNL1        0.2033
     18 N          62.4860   85.5473   17.2628 N.ar    1  UNL1       -0.0560
     19 O          62.5877   86.9344   17.8245 O.2     1  UNL1       -0.3361
     20 C          63.1699   87.8221   16.7648 C.ar    1  UNL1        0.2480
     21 N          63.4281   86.9835   15.5481 N.ar    1  UNL1       -0.1900
     22 C          63.2524   82.0673   13.0512 C.ar    1  UNL1        0.1387
     23 C          62.3523   82.0078   14.2496 C.ar    1  UNL1        0.0370
     24 C          62.2700   83.1780   15.1845 C.ar    1  UNL1        0.0063
     25 C          63.0878   84.4075   14.9210 C.ar    1  UNL1        0.0393
     26 C          63.9878   84.4669   13.7226 C.ar    1  UNL1        0.0063
     27 C          64.0701   83.2968   12.7876 C.ar    1  UNL1        0.0370
     28 C          63.3067   81.1188   10.6330 C.3     1  UNL1        0.2525
     29 O          63.3347   80.8971   12.1163 O.3     1  UNL1       -0.4714
@<TRIPOS>BOND
     1    28    29    1
     2    29    22    1
     3    22    23   ar
     4    23    24   ar
     5    24    25   ar
     6    25    17    1
     7    17    18   ar
     8    18    19   ar
     9    19    20   ar
    10    20    16    1
    11    16     1    1
    12     1     2    1
    13     2     3   ar
    14     3     4   ar
    15     4     5   ar
    16     5     6    1
    17     5     7   ar
    18     7     8    1
    19     8     9   ar
    20     9    10   ar
    21    10    11   ar
    22    11    14    1
    23    14    15    1
    24    11    12   ar
    25    12    13   ar
    26    20    21   ar
    27    25    26   ar
    28    26    27   ar
    29    27    22   ar
    30    21    17   ar
    31     7     2   ar
    32    13     8   ar
@<TRIPOS>MOLECULE
*****
 29 32 0 0 0
SMALL
GASTEIGER

@<TRIPOS>ATOM
      1 S          61.1255   86.9351   10.8885 S.3     1  UNL1       -0.0653
      2 C          62.0312   85.8350   10.4201 C.ar    1  UNL1        0.1973
      3 N          62.1971   85.3727    9.0028 N.ar    1  UNL1       -0.1221
      4 N          63.1985   84.2560    8.9936 N.ar    1  UNL1       -0.1325
      5 C          63.6516   84.0280   10.4054 C.ar    1  UNL1        0.1479
      6 C          64.6506   83.0041   10.8562 C.3     1  UNL1        0.0742
      7 N          62.9302   85.0040   11.2869 N.ar    1  UNL1       -0.2724
      8 C          63.0812   85.1272   12.7742 C.ar    1  UNL1        0.0671
      9 C          63.8912   86.2479   13.3555 C.ar    1  UNL1        0.0207
     10 C          64.0422   86.3711   14.8428 C.ar    1  UNL1        0.0384
     11 C          63.3833   85.3736   15.7488 C.ar    1  UNL1        0.1388
     12 C          62.5733   84.2529   15.1675 C.ar    1  UNL1        0.0384
     13 C          62.4222   84.1297   13.6802 C.ar    1  UNL1        0.0207
     14 O          63.5343   85.4968   17.2361 O.3     1  UNL1       -0.4714
     15 C          62.6973   86.4830   17.9957 C.3     1  UNL1        0.2525
     16 C          61.0597   88.2269   10.1288 C.3     1  UNL1        0.1528
     17 C          63.5005   90.7905   11.7213 C.ar    1  UNL1        0.2033
     18 N          63.2816   91.4004   10.3684 N.ar    1  UNL1       -0.0560
     19 O          62.3407   90.5143    9.6072 O.2     1  UNL1       -0.3361
     20 C          61.9780   89.3567   10.4896 C.ar    1  UNL1        0.2480
     21 N          62.6948   89.5275   11.7961 N.ar    1  UNL1       -0.1900
     22 C          66.1152   92.4573   14.9825 C.ar    1  UNL1        0.1387
     23 C          66.2460   92.9719   13.5796 C.ar    1  UNL1        0.0370
     24 C          65.3745   92.4163   12.4926 C.ar    1  UNL1        0.0063
     25 C          64.3721   91.3461   12.8083 C.ar    1  UNL1        0.0393
     26 C          64.2412   90.8315   14.2111 C.ar    1  UNL1        0.0063
     27 C          65.1128   91.3870   15.2982 C.ar    1  UNL1        0.0370
     28 C          68.3637   93.5118   15.7455 C.3     1  UNL1        0.2525
     29 O          66.9867   93.0129   16.0695 O.3     1  UNL1       -0.4714
@<TRIPOS>BOND
     1    28    29    1
     2    29    22    1
     3    22    23   ar
     4    23    24   ar
     5    24    25   ar
     6    25    17    1
     7    17    18   ar
     8    18    19   ar
     9    19    20   ar
    10    20    16    1
    11    16     1    1
    12     1     2    1
    13     2     3   ar
    14     3     4   ar
    15     4     5   ar
    16     5     6    1
    17     5     7   ar
    18     7     8    1
    19     8     9   ar
    20     9    10   ar
    21    10    11   ar
    22    11    14    1
    23    14    15    1
    24    11    12   ar
    25    12    13   ar
    26    20    21   ar
    27    25    26   ar
    28    26    27   ar
    29    27    22   ar
    30    21    17   ar
    31     7     2   ar
    32    13     8   ar
@<TRIPOS>MOLECULE
*****
 29 32 0 0 0
SMALL
GASTEIGER

@<TRIPOS>ATOM
      1 S          61.8163   86.5178   10.7245 S.3     1  UNL1       -0.0653
      2 C          62.6938   86.6126   11.9374 C.ar    1  UNL1        0.1973
      3 N          63.0887   87.8757   12.6434 N.ar    1  UNL1       -0.1221
      4 N          63.9694   87.5046   13.7996 N.ar    1  UNL1       -0.1325
      5 C          64.1188   86.0120   13.8080 C.ar    1  UNL1        0.1479
      6 C          64.9165   85.2113   14.7942 C.3     1  UNL1        0.0742
      7 N          63.3304   85.4607   12.6571 N.ar    1  UNL1       -0.2724
      8 C          63.2013   84.0120   12.2904 C.ar    1  UNL1        0.0671
      9 C          63.7960   83.5068   11.0093 C.ar    1  UNL1        0.0207
     10 C          63.6669   82.0581   10.6426 C.ar    1  UNL1        0.0384
     11 C          62.9431   81.1145   11.5568 C.ar    1  UNL1        0.1388
     12 C          62.3484   81.6198   12.8379 C.ar    1  UNL1        0.0384
     13 C          62.4775   83.0685   13.2047 C.ar    1  UNL1        0.0207
     14 O          62.8140   79.6658   11.1901 O.3     1  UNL1       -0.4714
     15 C          62.8150   79.2544    9.7476 C.3     1  UNL1        0.2525
     16 C          60.5409   87.3045   10.6584 C.3     1  UNL1        0.1528
     17 C          59.4289   88.8983    7.2985 C.ar    1  UNL1        0.2033
     18 N          58.6869   87.5952    7.2608 N.ar    1  UNL1       -0.0560
     19 O          59.0131   86.8396    8.5148 O.2     1  UNL1       -0.3361
     20 C          59.9567   87.6756    9.3275 C.ar    1  UNL1        0.2480
     21 N          60.2137   88.9480    8.5758 N.ar    1  UNL1       -0.1900
     22 C          59.3196   92.0968    4.1350 C.ar    1  UNL1        0.1387
     23 C          58.0472   91.6426    4.7865 C.ar    1  UNL1        0.0370
     24 C          58.0836   90.5764    5.8410 C.ar    1  UNL1        0.0063
     25 C          59.3924   89.9645    6.2440 C.ar    1  UNL1        0.0393
     26 C          60.6649   90.4187    5.5924 C.ar    1  UNL1        0.0063
     27 C          60.6284   91.4848    4.5379 C.ar    1  UNL1        0.0370
     28 C          60.1615   93.0507    1.8698 C.3     1  UNL1        0.2525
     29 O          59.2832   93.1630    3.0805 O.3     1  UNL1       -0.4714
@<TRIPOS>BOND
     1    28    29    1
     2    29    22    1
     3    22    23   ar
     4    23    24   ar
     5    24    25   ar
     6    25    17    1
     7    17    18   ar
     8    18    19   ar
     9    19    20   ar
    10    20    16    1
    11    16     1    1
    12     1     2    1
    13     2     3   ar
    14     3     4   ar
    15     4     5   ar
    16     5     6    1
    17     5     7   ar
    18     7     8    1
    19     8     9   ar
    20     9    10   ar
    21    10    11   ar
    22    11    14    1
    23    14    15    1
    24    11    12   ar
    25    12    13   ar
    26    20    21   ar
    27    25    26   ar
    28    26    27   ar
    29    27    22   ar
    30    21    17   ar
    31     7     2   ar
    32    13     8   ar
