@<TRIPOS>MOLECULE
*****
 37 42 0 0 0
SMALL
GASTEIGER

@<TRIPOS>ATOM
      1 C          65.0198   91.6242   12.6107 C.ar    1  UNL1        0.0205
      2 C          63.7942   90.9019   12.1353 C.ar    1  UNL1        0.0400
      3 C          62.9803   90.0907   13.0995 C.ar    1  UNL1        0.1577
      4 C          63.3920   90.0020   14.5392 C.ar    1  UNL1        0.1356
      5 N          64.6177   90.7245   15.0146 N.ar    1  UNL1       -0.2406
      6 C          65.4315   91.5356   14.0503 C.ar    1  UNL1        0.0846
      7 C          64.7779   96.8560    9.8974 C.3     1  UNL1        0.0540
      8 C          65.9497   95.9548    9.6433 C.2     1  UNL1        0.0821
      9 N          67.1101   96.2509    8.7401 N.2     1  UNL1       -0.1526
     10 N          68.0444   95.0783    8.7863 N.2     1  UNL1       -0.1523
     11 C          67.4614   94.0575    9.7180 C.2     1  UNL1        0.0860
     12 C          67.9422   92.7047   10.1526 C.3     1  UNL1        0.0736
     13 C          67.1283   91.8937   11.1168 C.2     1  UNL1       -0.0197
     14 C          65.8337   92.4354   11.6464 C.2     1  UNL1       -0.0023
     15 C          65.3529   93.7881   11.2119 C.2     1  UNL1        0.0022
     16 C          66.1668   94.5992   10.2477 C.2     1  UNL1        0.0309
     17 C          66.6572   92.2580   14.5257 C.ar    1  UNL1        0.0584
     18 C          67.9298   91.6193   14.9972 C.ar    1  UNL1        0.0453
     19 C          68.8845   92.7126   15.3760 C.ar    1  UNL1        0.1798
     20 O          68.2018   94.0270   15.1385 O.2     1  UNL1       -0.4473
     21 C          66.8253   93.7460   14.6131 C.ar    1  UNL1        0.1812
     22 O          61.7547   89.3683   12.6241 O.3     1  UNL1       -0.4724
     23 C          61.0541   89.8203   11.3771 C.3     1  UNL1        0.2211
     24 C          60.6624   88.8183   10.3319 C.3     1  UNL1        0.0995
     25 N          60.3185   89.2763    8.9455 N.3     1  UNL1       -0.3190
     26 H          60.0779   88.4688    8.3706 H       1  UNL1        0.1189
     27 H          61.1202   89.7572    8.5376 H       1  UNL1        0.1189
     28 C          60.6146   87.3584   10.6729 C.3     1  UNL1        0.0472
     29 C          61.5549   86.4005   10.0032 C.2     1  UNL1       -0.0005
     30 C          61.8497   86.3365    8.5339 C.2     1  UNL1        0.0942
     31 N          62.8425   85.2350    8.3079 N.2     1  UNL1       -0.2482
     32 C          63.1612   84.6182    9.6376 C.2     1  UNL1        0.0631
     33 C          64.0731   83.4937   10.0297 C.3     1  UNL1        0.0717
     34 C          64.1894   83.0895   11.4696 C.2     1  UNL1       -0.0198
     35 C          63.3936   83.8099   12.5173 C.2     1  UNL1       -0.0042
     36 C          62.4816   84.9344   12.1252 C.2     1  UNL1        0.0006
     37 C          62.3654   85.3386   10.6854 C.2     1  UNL1        0.0114
@<TRIPOS>BOND
     1     7     8    1
     2     8     9    2
     3     9    10    1
     4    10    11    2
     5    11    12    1
     6    12    13    1
     7    13    14    2
     8    14     1    1
     9     1     2   ar
    10     2     3   ar
    11     3    22    1
    12    22    23    1
    13    23    24    1
    14    24    25    1
    15    24    28    1
    16    28    29    1
    17    29    30    2
    18    30    31    1
    19    31    32    2
    20    32    33    1
    21    33    34    1
    22    34    35    2
    23    35    36    1
    24    36    37    2
    25     3     4   ar
    26     4     5   ar
    27     5     6   ar
    28     6    17    1
    29    17    18   ar
    30    18    19   ar
    31    19    20   ar
    32    20    21   ar
    33    14    15    1
    34    15    16    2
    35    16     8    1
    36    16    11    1
    37     6     1   ar
    38    21    17   ar
    39    37    29    1
    40    37    32    1
    41    25    26    1
    42    25    27    1
@<TRIPOS>MOLECULE
*****
 37 42 0 0 0
SMALL
GASTEIGER

@<TRIPOS>ATOM
      1 C          63.2935   85.1087   13.8685 C.ar    1  UNL1        0.0205
      2 C          63.5427   86.4763   14.4319 C.ar    1  UNL1        0.0400
      3 C          63.5808   86.6800   15.9176 C.ar    1  UNL1        0.1577
      4 C          63.3697   85.5159   16.8398 C.ar    1  UNL1        0.1356
      5 N          63.1206   84.1483   16.2763 N.ar    1  UNL1       -0.2406
      6 C          63.0825   83.9447   14.7907 C.ar    1  UNL1        0.0846
      7 C          60.3137   87.1060    9.1863 C.3     1  UNL1        0.0540
      8 C          61.3897   86.0805    8.9844 C.2     1  UNL1        0.0821
      9 N          61.8056   85.4857    7.6717 N.2     1  UNL1       -0.1526
     10 N          62.9116   84.5075    7.9358 N.2     1  UNL1       -0.1523
     11 C          63.1793   84.4977    9.4117 C.2     1  UNL1        0.0860
     12 C          64.1579   83.7291   10.2492 C.3     1  UNL1        0.0736
     13 C          64.1960   83.9328   11.7348 C.2     1  UNL1       -0.0197
     14 C          63.2554   84.9050   12.3829 C.2     1  UNL1       -0.0023
     15 C          62.2767   85.6736   11.5454 C.2     1  UNL1        0.0022
     16 C          62.2387   85.4699   10.0598 C.2     1  UNL1        0.0309
     17 C          62.8333   82.5770   14.2273 C.ar    1  UNL1        0.0584
     18 C          61.5015   81.8944   14.1259 C.ar    1  UNL1        0.0453
     19 C          61.7174   80.5473   13.5022 C.ar    1  UNL1        0.1798
     20 O          63.1826   80.3974   13.2182 O.2     1  UNL1       -0.4473
     21 C          63.8723   81.6518   13.6663 C.ar    1  UNL1        0.1812
     22 O          63.8299   88.0476   16.4810 O.3     1  UNL1       -0.4724
     23 C          63.1701   89.2448   15.8634 C.3     1  UNL1        0.2211
     24 C          63.9135   90.5439   15.7658 C.3     1  UNL1        0.0995
     25 N          63.4881   91.7160   16.5997 N.3     1  UNL1       -0.3190
     26 H          64.0995   92.5096   16.4078 H       1  UNL1        0.1189
     27 H          63.5497   91.4705   17.5878 H       1  UNL1        0.1189
     28 C          65.0824   90.6710   14.8344 C.3     1  UNL1        0.0472
     29 C          64.8915   91.2579   13.4671 C.2     1  UNL1       -0.0005
     30 C          65.5929   92.4658   12.9204 C.2     1  UNL1        0.0942
     31 N          65.1006   92.6944   11.5220 N.2     1  UNL1       -0.2482
     32 C          64.0949   91.6276   11.2045 C.2     1  UNL1        0.0631
     33 C          63.2802   91.3500    9.9761 C.3     1  UNL1        0.0717
     34 C          62.3362   90.1845    9.9498 C.2     1  UNL1       -0.0198
     35 C          62.2070   89.2967   11.1519 C.2     1  UNL1       -0.0042
     36 C          63.0218   89.5744   12.3804 C.2     1  UNL1        0.0006
     37 C          63.9657   90.7398   12.4067 C.2     1  UNL1        0.0114
@<TRIPOS>BOND
     1     7     8    1
     2     8     9    2
     3     9    10    1
     4    10    11    2
     5    11    12    1
     6    12    13    1
     7    13    14    2
     8    14     1    1
     9     1     2   ar
    10     2     3   ar
    11     3    22    1
    12    22    23    1
    13    23    24    1
    14    24    25    1
    15    24    28    1
    16    28    29    1
    17    29    30    2
    18    30    31    1
    19    31    32    2
    20    32    33    1
    21    33    34    1
    22    34    35    2
    23    35    36    1
    24    36    37    2
    25     3     4   ar
    26     4     5   ar
    27     5     6   ar
    28     6    17    1
    29    17    18   ar
    30    18    19   ar
    31    19    20   ar
    32    20    21   ar
    33    14    15    1
    34    15    16    2
    35    16     8    1
    36    16    11    1
    37     6     1   ar
    38    21    17   ar
    39    37    29    1
    40    37    32    1
    41    25    26    1
    42    25    27    1
@<TRIPOS>MOLECULE
*****
 37 42 0 0 0
SMALL
GASTEIGER

@<TRIPOS>ATOM
      1 C          64.1263   90.7483   13.1621 C.ar    1  UNL1        0.0205
      2 C          63.2927   90.5716   11.9277 C.ar    1  UNL1        0.0400
      3 C          63.5636   91.4097   10.7135 C.ar    1  UNL1        0.1577
      4 C          64.6682   92.4243   10.7337 C.ar    1  UNL1        0.1356
      5 N          65.5019   92.6009   11.9682 N.ar    1  UNL1       -0.2406
      6 C          65.2309   91.7629   13.1824 C.ar    1  UNL1        0.0846
      7 C          64.3922   85.0889   14.8030 C.3     1  UNL1        0.0540
      8 C          63.9321   86.1161   15.7945 C.2     1  UNL1        0.0821
      9 N          63.5167   85.8501   17.2111 N.2     1  UNL1       -0.1526
     10 N          63.1344   87.1593   17.8355 N.2     1  UNL1       -0.1523
     11 C          63.3136   88.2344   16.8049 C.2     1  UNL1        0.0860
     12 C          63.0915   89.7171   16.8521 C.3     1  UNL1        0.0736
     13 C          63.3624   90.5550   15.6379 C.2     1  UNL1       -0.0197
     14 C          63.8554   89.9102   14.3764 C.2     1  UNL1       -0.0023
     15 C          64.0775   88.4276   14.3292 C.2     1  UNL1        0.0022
     16 C          63.8066   87.5896   15.5434 C.2     1  UNL1        0.0309
     17 C          66.0646   91.9395   14.4169 C.ar    1  UNL1        0.0584
     18 C          67.4200   91.3440   14.6581 C.ar    1  UNL1        0.0453
     19 C          67.8822   91.7791   16.0171 C.ar    1  UNL1        0.1798
     20 O          66.8125   92.6436   16.6159 O.2     1  UNL1       -0.4473
     21 C          65.6892   92.7427   15.6268 C.ar    1  UNL1        0.1812
     22 O          62.7300   91.2330    9.4791 O.3     1  UNL1       -0.4724
     23 C          61.9099   89.9899    9.2994 C.3     1  UNL1        0.2211
     24 C          60.6497   89.8019   10.0909 C.3     1  UNL1        0.0995
     25 N          59.9542   90.9896   10.6872 N.3     1  UNL1       -0.3190
     26 H          59.1211   90.6800   11.1875 H       1  UNL1        0.1189
     27 H          59.6846   91.6342    9.9440 H       1  UNL1        0.1189
     28 C          60.0850   88.4260   10.2861 C.3     1  UNL1        0.0472
     29 C          59.9702   87.4899    9.1196 C.2     1  UNL1       -0.0005
     30 C          58.7638   87.3139    8.2457 C.2     1  UNL1        0.0942
     31 N          59.0897   86.2807    7.2083 N.2     1  UNL1       -0.2482
     32 C          60.4976   85.8182    7.4410 C.2     1  UNL1        0.0631
     33 C          61.3543   84.8131    6.7299 C.3     1  UNL1        0.0717
     34 C          62.7553   84.5552    7.2000 C.2     1  UNL1       -0.0198
     35 C          63.2994   85.3026    8.3812 C.2     1  UNL1       -0.0042
     36 C          62.4426   86.3077    9.0924 C.2     1  UNL1        0.0006
     37 C          61.0417   86.5655    8.6222 C.2     1  UNL1        0.0114
@<TRIPOS>BOND
     1     7     8    1
     2     8     9    2
     3     9    10    1
     4    10    11    2
     5    11    12    1
     6    12    13    1
     7    13    14    2
     8    14     1    1
     9     1     2   ar
    10     2     3   ar
    11     3    22    1
    12    22    23    1
    13    23    24    1
    14    24    25    1
    15    24    28    1
    16    28    29    1
    17    29    30    2
    18    30    31    1
    19    31    32    2
    20    32    33    1
    21    33    34    1
    22    34    35    2
    23    35    36    1
    24    36    37    2
    25     3     4   ar
    26     4     5   ar
    27     5     6   ar
    28     6    17    1
    29    17    18   ar
    30    18    19   ar
    31    19    20   ar
    32    20    21   ar
    33    14    15    1
    34    15    16    2
    35    16     8    1
    36    16    11    1
    37     6     1   ar
    38    21    17   ar
    39    37    29    1
    40    37    32    1
    41    25    26    1
    42    25    27    1
@<TRIPOS>MOLECULE
*****
 37 42 0 0 0
SMALL
GASTEIGER

@<TRIPOS>ATOM
      1 C          62.3094   87.0257   10.5841 C.ar    1  UNL1        0.0205
      2 C          62.6503   88.0744   11.6009 C.ar    1  UNL1        0.0400
      3 C          62.2675   89.5047   11.3605 C.ar    1  UNL1        0.1577
      4 C          61.5438   89.8862   10.1032 C.ar    1  UNL1        0.1356
      5 N          61.2029   88.8374    9.0864 N.ar    1  UNL1       -0.2406
      6 C          61.5857   87.4072    9.3269 C.ar    1  UNL1        0.0846
      7 C          62.0484   83.0245   14.9101 C.3     1  UNL1        0.0540
      8 C          62.6552   82.6386   13.5937 C.2     1  UNL1        0.0821
      9 N          63.2241   81.2952   13.2452 N.2     1  UNL1       -0.1526
     10 N          63.7202   81.3547   11.8309 N.2     1  UNL1       -0.1523
     11 C          63.4578   82.7349   11.3053 C.2     1  UNL1        0.0860
     12 C          63.7332   83.3716    9.9754 C.3     1  UNL1        0.0736
     13 C          63.3504   84.8018    9.7350 C.2     1  UNL1       -0.0197
     14 C          62.6922   85.5954   10.8245 C.2     1  UNL1       -0.0023
     15 C          62.4168   84.9586   12.1545 C.2     1  UNL1        0.0022
     16 C          62.7996   83.5284   12.3948 C.2     1  UNL1        0.0309
     17 C          61.2448   86.3584    8.3100 C.ar    1  UNL1        0.0584
     18 C          62.2258   85.5226    7.5425 C.ar    1  UNL1        0.0453
     19 C          61.4503   84.6090    6.6404 C.ar    1  UNL1        0.1798
     20 O          59.9899   84.8800    6.8504 O.2     1  UNL1       -0.4473
     21 C          59.8630   85.9612    7.8823 C.ar    1  UNL1        0.1812
     22 O          62.6084   90.5534   12.3773 O.3     1  UNL1       -0.4724
     23 C          63.6695   91.5708   12.0787 C.3     1  UNL1        0.2211
     24 C          64.8488   91.7153   12.9942 C.3     1  UNL1        0.0995
     25 N          65.5903   93.0175   13.0624 N.3     1  UNL1       -0.3190
     26 H          66.3570   92.9376   13.7303 H       1  UNL1        0.1189
     27 H          64.9537   93.7559   13.3621 H       1  UNL1        0.1189
     28 C          65.2868   90.5576   13.8416 C.3     1  UNL1        0.0472
     29 C          64.4473   90.1199   15.0051 C.2     1  UNL1       -0.0005
     30 C          63.7721   91.0229   15.9943 C.2     1  UNL1        0.0942
     31 N          63.0432   90.1634   16.9842 N.2     1  UNL1       -0.2482
     32 C          63.2679   88.7291   16.6068 C.2     1  UNL1        0.0631
     33 C          62.7945   87.4442   17.2189 C.3     1  UNL1        0.0717
     34 C          63.1889   86.1323   16.6078 C.2     1  UNL1       -0.0198
     35 C          64.0567   86.1054   15.3846 C.2     1  UNL1       -0.0042
     36 C          64.5301   87.3904   14.7726 C.2     1  UNL1        0.0006
     37 C          64.1357   88.7023   15.3836 C.2     1  UNL1        0.0114
@<TRIPOS>BOND
     1     7     8    1
     2     8     9    2
     3     9    10    1
     4    10    11    2
     5    11    12    1
     6    12    13    1
     7    13    14    2
     8    14     1    1
     9     1     2   ar
    10     2     3   ar
    11     3    22    1
    12    22    23    1
    13    23    24    1
    14    24    25    1
    15    24    28    1
    16    28    29    1
    17    29    30    2
    18    30    31    1
    19    31    32    2
    20    32    33    1
    21    33    34    1
    22    34    35    2
    23    35    36    1
    24    36    37    2
    25     3     4   ar
    26     4     5   ar
    27     5     6   ar
    28     6    17    1
    29    17    18   ar
    30    18    19   ar
    31    19    20   ar
    32    20    21   ar
    33    14    15    1
    34    15    16    2
    35    16     8    1
    36    16    11    1
    37     6     1   ar
    38    21    17   ar
    39    37    29    1
    40    37    32    1
    41    25    26    1
    42    25    27    1
@<TRIPOS>MOLECULE
*****
 37 42 0 0 0
SMALL
GASTEIGER

@<TRIPOS>ATOM
      1 C          65.1907   91.7824   12.9011 C.ar    1  UNL1        0.0205
      2 C          63.9161   91.0855   12.5277 C.ar    1  UNL1        0.0400
      3 C          63.3101   90.0795   13.4610 C.ar    1  UNL1        0.1577
      4 C          63.9789   89.7705   14.7676 C.ar    1  UNL1        0.1356
      5 N          65.2536   90.4675   15.1410 N.ar    1  UNL1       -0.2406
      6 C          65.8595   91.4734   14.2077 C.ar    1  UNL1        0.0846
      7 C          68.8530   91.9121    8.2792 C.3     1  UNL1        0.0540
      8 C          68.2728   93.1984    8.7877 C.2     1  UNL1        0.0821
      9 N          68.5327   94.5653    8.2274 N.2     1  UNL1       -0.1526
     10 N          67.7513   95.5554    9.0393 N.2     1  UNL1       -0.1523
     11 C          67.0085   94.8003   10.1015 C.2     1  UNL1        0.0860
     12 C          66.0803   95.2511   11.1902 C.3     1  UNL1        0.0736
     13 C          65.4744   94.2451   12.1233 C.2     1  UNL1       -0.0197
     14 C          65.7967   92.7884   11.9679 C.2     1  UNL1       -0.0023
     15 C          66.7249   92.3377   10.8792 C.2     1  UNL1        0.0022
     16 C          67.3308   93.3437    9.9460 C.2     1  UNL1        0.0309
     17 C          67.1342   92.1704   14.5811 C.ar    1  UNL1        0.0584
     18 C          67.2903   93.2087   15.6524 C.ar    1  UNL1        0.0453
     19 C          68.7292   93.6314   15.6821 C.ar    1  UNL1        0.1798
     20 O          69.4624   92.8544   14.6291 O.2     1  UNL1       -0.4473
     21 C          68.4767   91.9515   13.9487 C.ar    1  UNL1        0.1812
     22 O          62.0354   89.3826   13.0876 O.3     1  UNL1       -0.4724
     23 C          61.7659   89.0288   11.6550 C.3     1  UNL1        0.2211
     24 C          60.3534   88.8903   11.1697 C.3     1  UNL1        0.0995
     25 N          59.2644   88.5111   12.1290 N.3     1  UNL1       -0.3190
     26 H          58.3750   88.4630   11.6320 H       1  UNL1        0.1189
     27 H          59.2035   89.2112   12.8682 H       1  UNL1        0.1189
     28 C          60.0298   89.1312    9.7249 C.3     1  UNL1        0.0472
     29 C          59.9316   87.9741    8.7754 C.2     1  UNL1       -0.0005
     30 C          58.7435   87.6275    7.9279 C.2     1  UNL1        0.0942
     31 N          59.0818   86.3997    7.1354 N.2     1  UNL1       -0.2482
     32 C          60.4790   85.9875    7.4931 C.2     1  UNL1        0.0631
     33 C          61.3409   84.8519    7.0268 C.3     1  UNL1        0.0717
     34 C          62.7280   84.6892    7.5741 C.2     1  UNL1       -0.0198
     35 C          63.2532   85.6623    8.5877 C.2     1  UNL1       -0.0042
     36 C          62.3912   86.7979    9.0539 C.2     1  UNL1        0.0006
     37 C          61.0042   86.9605    8.5066 C.2     1  UNL1        0.0114
@<TRIPOS>BOND
     1     7     8    1
     2     8     9    2
     3     9    10    1
     4    10    11    2
     5    11    12    1
     6    12    13    1
     7    13    14    2
     8    14     1    1
     9     1     2   ar
    10     2     3   ar
    11     3    22    1
    12    22    23    1
    13    23    24    1
    14    24    25    1
    15    24    28    1
    16    28    29    1
    17    29    30    2
    18    30    31    1
    19    31    32    2
    20    32    33    1
    21    33    34    1
    22    34    35    2
    23    35    36    1
    24    36    37    2
    25     3     4   ar
    26     4     5   ar
    27     5     6   ar
    28     6    17    1
    29    17    18   ar
    30    18    19   ar
    31    19    20   ar
    32    20    21   ar
    33    14    15    1
    34    15    16    2
    35    16     8    1
    36    16    11    1
    37     6     1   ar
    38    21    17   ar
    39    37    29    1
    40    37    32    1
    41    25    26    1
    42    25    27    1
@<TRIPOS>MOLECULE
*****
 37 42 0 0 0
SMALL
GASTEIGER

@<TRIPOS>ATOM
      1 C          62.3357   86.9909   10.8536 C.ar    1  UNL1        0.0205
      2 C          62.7080   87.9526   11.9428 C.ar    1  UNL1        0.0400
      3 C          62.3470   89.4032   11.8182 C.ar    1  UNL1        0.1577
      4 C          61.6136   89.8920   10.6044 C.ar    1  UNL1        0.1356
      5 N          61.2413   88.9301    9.5152 N.ar    1  UNL1       -0.2406
      6 C          61.6023   87.4796    9.6398 C.ar    1  UNL1        0.0846
      7 C          61.9721   82.6485   14.8289 C.3     1  UNL1        0.0540
      8 C          62.5888   82.3646   13.4913 C.2     1  UNL1        0.0821
      9 N          63.1439   81.0468   13.0382 N.2     1  UNL1       -0.1526
     10 N          63.6570   81.2166   11.6389 N.2     1  UNL1       -0.1523
     11 C          63.4189   82.6392   11.2272 C.2     1  UNL1        0.0860
     12 C          63.7180   83.3802    9.9578 C.3     1  UNL1        0.0736
     13 C          63.3569   84.8307    9.8333 C.2     1  UNL1       -0.0197
     14 C          62.6968   85.5403   10.9782 C.2     1  UNL1       -0.0023
     15 C          62.3977   84.7993   12.2476 C.2     1  UNL1        0.0022
     16 C          62.7588   83.3487   12.3721 C.2     1  UNL1        0.0309
     17 C          61.2300   86.5177    8.5506 C.ar    1  UNL1        0.0584
     18 C          62.1860   85.7218    7.7125 C.ar    1  UNL1        0.0453
     19 C          61.3831   84.8951    6.7522 C.ar    1  UNL1        0.1798
     20 O          59.9309   85.1802    6.9969 O.2     1  UNL1       -0.4473
     21 C          59.8363   86.1830    8.1084 C.ar    1  UNL1        0.1812
     22 O          62.7193   90.3650   12.9073 O.3     1  UNL1       -0.4724
     23 C          63.0345   89.8554   14.2825 C.3     1  UNL1        0.2211
     24 C          63.9604   90.6279   15.1746 C.3     1  UNL1        0.0995
     25 N          63.4377   91.2608   16.4301 N.3     1  UNL1       -0.3190
     26 H          64.1982   91.7419   16.9104 H       1  UNL1        0.1189
     27 H          63.0530   90.5393   17.0399 H       1  UNL1        0.1189
     28 C          65.4090   90.7675   14.8112 C.3     1  UNL1        0.0472
     29 C          65.9269   92.0716   14.2808 C.2     1  UNL1       -0.0005
     30 C          66.7206   93.0842   15.0518 C.2     1  UNL1        0.0942
     31 N          67.0262   94.2304   14.1337 N.2     1  UNL1       -0.2482
     32 C          66.4213   93.9261   12.7951 C.2     1  UNL1        0.0631
     33 C          66.4014   94.6915   11.5054 C.3     1  UNL1        0.0717
     34 C          65.7020   94.1227   10.3064 C.2     1  UNL1       -0.0198
     35 C          65.0226   92.7885   10.3973 C.2     1  UNL1       -0.0042
     36 C          65.0426   92.0231   11.6872 C.2     1  UNL1        0.0006
     37 C          65.7419   92.5919   12.8861 C.2     1  UNL1        0.0114
@<TRIPOS>BOND
     1     7     8    1
     2     8     9    2
     3     9    10    1
     4    10    11    2
     5    11    12    1
     6    12    13    1
     7    13    14    2
     8    14     1    1
     9     1     2   ar
    10     2     3   ar
    11     3    22    1
    12    22    23    1
    13    23    24    1
    14    24    25    1
    15    24    28    1
    16    28    29    1
    17    29    30    2
    18    30    31    1
    19    31    32    2
    20    32    33    1
    21    33    34    1
    22    34    35    2
    23    35    36    1
    24    36    37    2
    25     3     4   ar
    26     4     5   ar
    27     5     6   ar
    28     6    17    1
    29    17    18   ar
    30    18    19   ar
    31    19    20   ar
    32    20    21   ar
    33    14    15    1
    34    15    16    2
    35    16     8    1
    36    16    11    1
    37     6     1   ar
    38    21    17   ar
    39    37    29    1
    40    37    32    1
    41    25    26    1
    42    25    27    1
@<TRIPOS>MOLECULE
*****
 37 42 0 0 0
SMALL
GASTEIGER

@<TRIPOS>ATOM
      1 C          62.4082   86.4190   10.7661 C.ar    1  UNL1        0.0205
      2 C          62.6662   87.3243   11.9339 C.ar    1  UNL1        0.0400
      3 C          62.3146   88.7800   11.8464 C.ar    1  UNL1        0.1577
      4 C          61.7051   89.3302   10.5912 C.ar    1  UNL1        0.1356
      5 N          61.4470   88.4247    9.4234 N.ar    1  UNL1       -0.2406
      6 C          61.7986   86.9692    9.5109 C.ar    1  UNL1        0.0846
      7 C          61.1750   81.7471   14.1490 C.3     1  UNL1        0.0540
      8 C          62.1079   81.5811   12.9862 C.2     1  UNL1        0.0821
      9 N          62.7866   80.3082   12.5750 N.2     1  UNL1       -0.1526
     10 N          63.6240   80.5994   11.3651 N.2     1  UNL1       -0.1523
     11 C          63.4629   82.0522   11.0285 C.2     1  UNL1        0.0860
     12 C          64.0483   82.9010    9.9391 C.3     1  UNL1        0.0736
     13 C          63.6967   84.3566    9.8517 C.2     1  UNL1       -0.0197
     14 C          62.7597   84.9633   10.8536 C.2     1  UNL1       -0.0023
     15 C          62.1743   84.1145   11.9430 C.2     1  UNL1        0.0022
     16 C          62.5259   82.6590   12.0304 C.2     1  UNL1        0.0309
     17 C          61.5406   86.0637    8.3431 C.ar    1  UNL1        0.0584
     18 C          62.5803   85.3256    7.5531 C.ar    1  UNL1        0.0453
     19 C          61.8799   84.5432    6.4821 C.ar    1  UNL1        0.1798
     20 O          60.4071   84.7977    6.6101 O.2     1  UNL1       -0.4473
     21 C          60.1975   85.7375    7.7603 C.ar    1  UNL1        0.1812
     22 O          62.5726   89.6854   13.0142 O.3     1  UNL1       -0.4724
     23 C          63.5531   89.2805   14.0748 C.3     1  UNL1        0.2211
     24 C          63.5265   89.9515   15.4161 C.3     1  UNL1        0.0995
     25 N          63.4472   91.4468   15.5053 N.3     1  UNL1       -0.3190
     26 H          63.4390   91.7289   16.4855 H       1  UNL1        0.1189
     27 H          62.5927   91.7696   15.0514 H       1  UNL1        0.1189
     28 C          63.5794   89.1272   16.6682 C.3     1  UNL1        0.0472
     29 C          63.1142   87.7012   16.6476 C.2     1  UNL1       -0.0005
     30 C          61.9203   87.1527   17.3712 C.2     1  UNL1        0.0942
     31 N          61.8295   85.6860   17.0706 N.2     1  UNL1       -0.2482
     32 C          62.9674   85.3279   16.1610 C.2     1  UNL1        0.0631
     33 C          63.3831   84.0288   15.5371 C.3     1  UNL1        0.0717
     34 C          64.5928   83.9751   14.6517 C.2     1  UNL1       -0.0198
     35 C          65.3867   85.2206   14.3903 C.2     1  UNL1       -0.0042
     36 C          64.9710   86.5198   15.0143 C.2     1  UNL1        0.0006
     37 C          63.7613   86.5735   15.8996 C.2     1  UNL1        0.0114
@<TRIPOS>BOND
     1     7     8    1
     2     8     9    2
     3     9    10    1
     4    10    11    2
     5    11    12    1
     6    12    13    1
     7    13    14    2
     8    14     1    1
     9     1     2   ar
    10     2     3   ar
    11     3    22    1
    12    22    23    1
    13    23    24    1
    14    24    25    1
    15    24    28    1
    16    28    29    1
    17    29    30    2
    18    30    31    1
    19    31    32    2
    20    32    33    1
    21    33    34    1
    22    34    35    2
    23    35    36    1
    24    36    37    2
    25     3     4   ar
    26     4     5   ar
    27     5     6   ar
    28     6    17    1
    29    17    18   ar
    30    18    19   ar
    31    19    20   ar
    32    20    21   ar
    33    14    15    1
    34    15    16    2
    35    16     8    1
    36    16    11    1
    37     6     1   ar
    38    21    17   ar
    39    37    29    1
    40    37    32    1
    41    25    26    1
    42    25    27    1
@<TRIPOS>MOLECULE
*****
 37 42 0 0 0
SMALL
GASTEIGER

@<TRIPOS>ATOM
      1 C          63.8357   90.3487   13.0462 C.ar    1  UNL1        0.0205
      2 C          62.9568   90.0705   11.8630 C.ar    1  UNL1        0.0400
      3 C          63.1476   90.8401   10.5896 C.ar    1  UNL1        0.1577
      4 C          64.2173   91.8877   10.4995 C.ar    1  UNL1        0.1356
      5 N          65.0962   92.1659   11.6828 N.ar    1  UNL1       -0.2406
      6 C          64.9054   91.3964   12.9562 C.ar    1  UNL1        0.0846
      7 C          64.5047   84.8419   15.0511 C.3     1  UNL1        0.0540
      8 C          63.9985   85.9023   15.9834 C.2     1  UNL1        0.0821
      9 N          63.6303   85.7068   17.4243 N.2     1  UNL1       -0.1526
     10 N          63.1759   87.0281   17.9700 N.2     1  UNL1       -0.1523
     11 C          63.2634   88.0402   16.8663 C.2     1  UNL1        0.0860
     12 C          62.9457   89.5054   16.8208 C.3     1  UNL1        0.0736
     13 C          63.1365   90.2749   15.5474 C.2     1  UNL1       -0.0197
     14 C          63.6449   89.5791   14.3196 C.2     1  UNL1       -0.0023
     15 C          63.9626   88.1139   14.3652 C.2     1  UNL1        0.0022
     16 C          63.7718   87.3444   15.6386 C.2     1  UNL1        0.0309
     17 C          65.7843   91.6745   14.1395 C.ar    1  UNL1        0.0584
     18 C          67.2132   91.2461   14.2965 C.ar    1  UNL1        0.0453
     19 C          67.7006   91.7367   15.6276 C.ar    1  UNL1        0.1798
     20 O          66.5729   92.4684   16.2932 O.2     1  UNL1       -0.4473
     21 C          65.3886   92.4299   15.3735 C.ar    1  UNL1        0.1812
     22 O          62.2687   90.5619    9.4063 O.3     1  UNL1       -0.4724
     23 C          60.8712   90.0573    9.6122 C.3     1  UNL1        0.2211
     24 C          60.5299   88.6358    9.2763 C.3     1  UNL1        0.0995
     25 N          59.7549   88.3249    8.0301 N.3     1  UNL1       -0.3190
     26 H          59.6135   87.3172    7.9603 H       1  UNL1        0.1189
     27 H          60.2746   88.6526    7.2159 H       1  UNL1        0.1189
     28 C          60.9636   87.5252   10.1865 C.3     1  UNL1        0.0472
     29 C          61.8340   86.4220    9.6615 C.2     1  UNL1       -0.0005
     30 C          62.2561   86.2352    8.2343 C.2     1  UNL1        0.0942
     31 N          63.1179   85.0096    8.1625 N.2     1  UNL1       -0.2482
     32 C          63.2285   84.4389    9.5453 C.2     1  UNL1        0.0631
     33 C          63.9493   83.2373   10.0805 C.3     1  UNL1        0.0717
     34 C          63.8765   82.9085   11.5422 C.2     1  UNL1       -0.0198
     35 C          63.0829   83.7813   12.4687 C.2     1  UNL1       -0.0042
     36 C          62.3622   84.9830   11.9334 C.2     1  UNL1        0.0006
     37 C          62.4350   85.3118   10.4717 C.2     1  UNL1        0.0114
@<TRIPOS>BOND
     1     7     8    1
     2     8     9    2
     3     9    10    1
     4    10    11    2
     5    11    12    1
     6    12    13    1
     7    13    14    2
     8    14     1    1
     9     1     2   ar
    10     2     3   ar
    11     3    22    1
    12    22    23    1
    13    23    24    1
    14    24    25    1
    15    24    28    1
    16    28    29    1
    17    29    30    2
    18    30    31    1
    19    31    32    2
    20    32    33    1
    21    33    34    1
    22    34    35    2
    23    35    36    1
    24    36    37    2
    25     3     4   ar
    26     4     5   ar
    27     5     6   ar
    28     6    17    1
    29    17    18   ar
    30    18    19   ar
    31    19    20   ar
    32    20    21   ar
    33    14    15    1
    34    15    16    2
    35    16     8    1
    36    16    11    1
    37     6     1   ar
    38    21    17   ar
    39    37    29    1
    40    37    32    1
    41    25    26    1
    42    25    27    1
@<TRIPOS>MOLECULE
*****
 37 42 0 0 0
SMALL
GASTEIGER

@<TRIPOS>ATOM
      1 C          62.7561   87.8880   12.1309 C.ar    1  UNL1        0.0205
      2 C          63.0750   89.3322   12.3807 C.ar    1  UNL1        0.0400
      3 C          63.9806   89.7154   13.5135 C.ar    1  UNL1        0.1577
      4 C          64.5672   88.6542   14.3965 C.ar    1  UNL1        0.1356
      5 N          64.2483   87.2099   14.1467 N.ar    1  UNL1       -0.2406
      6 C          63.3428   86.8268   13.0139 C.ar    1  UNL1        0.0846
      7 C          62.9377   84.6658    7.1937 C.3     1  UNL1        0.0540
      8 C          61.6669   85.3754    7.5566 C.2     1  UNL1        0.0821
      9 N          60.3895   85.3536    6.7706 N.2     1  UNL1       -0.1526
     10 N          59.3836   86.1962    7.4974 N.2     1  UNL1       -0.1523
     11 C          60.0393   86.7387    8.7327 C.2     1  UNL1        0.0860
     12 C          59.5338   87.6290    9.8288 C.3     1  UNL1        0.0736
     13 C          60.4393   88.0121   10.9616 C.2     1  UNL1       -0.0197
     14 C          61.8505   87.5048   10.9981 C.2     1  UNL1       -0.0023
     15 C          62.3561   86.6145    9.9019 C.2     1  UNL1        0.0022
     16 C          61.4505   86.2314    8.7692 C.2     1  UNL1        0.0309
     17 C          63.0238   85.3825   12.7641 C.ar    1  UNL1        0.0584
     18 C          63.4026   84.5939   11.5457 C.ar    1  UNL1        0.0453
     19 C          62.8830   83.1973   11.7175 C.ar    1  UNL1        0.1798
     20 O          62.1831   83.1227   13.0422 O.2     1  UNL1       -0.4473
     21 C          62.2702   84.4732   13.6890 C.ar    1  UNL1        0.1812
     22 O          64.2994   91.1596   13.7632 O.3     1  UNL1       -0.4724
     23 C          65.1628   91.5467   14.9272 C.3     1  UNL1        0.2211
     24 C          66.2980   92.5075   14.7322 C.3     1  UNL1        0.0995
     25 N          67.5647   92.3415   15.5183 N.3     1  UNL1       -0.3190
     26 H          68.2233   93.0766   15.2611 H       1  UNL1        0.1189
     27 H          67.9750   91.4304   15.3134 H       1  UNL1        0.1189
     28 C          66.1666   93.6345   13.7510 C.3     1  UNL1        0.0472
     29 C          66.6583   93.4651   12.3440 C.2     1  UNL1       -0.0005
     30 C          67.3543   92.2561   11.7928 C.2     1  UNL1        0.0942
     31 N          67.6666   92.5188   10.3494 N.2     1  UNL1       -0.2482
     32 C          67.1636   93.8903   10.0085 C.2     1  UNL1        0.0631
     33 C          67.1924   94.6820    8.7349 C.3     1  UNL1        0.0717
     34 C          66.5982   96.0588    8.6939 C.2     1  UNL1       -0.0198
     35 C          65.9751   96.6436    9.9267 C.2     1  UNL1       -0.0042
     36 C          65.9462   95.8517   11.2003 C.2     1  UNL1        0.0006
     37 C          66.5405   94.4751   11.2412 C.2     1  UNL1        0.0114
@<TRIPOS>BOND
     1     7     8    1
     2     8     9    2
     3     9    10    1
     4    10    11    2
     5    11    12    1
     6    12    13    1
     7    13    14    2
     8    14     1    1
     9     1     2   ar
    10     2     3   ar
    11     3    22    1
    12    22    23    1
    13    23    24    1
    14    24    25    1
    15    24    28    1
    16    28    29    1
    17    29    30    2
    18    30    31    1
    19    31    32    2
    20    32    33    1
    21    33    34    1
    22    34    35    2
    23    35    36    1
    24    36    37    2
    25     3     4   ar
    26     4     5   ar
    27     5     6   ar
    28     6    17    1
    29    17    18   ar
    30    18    19   ar
    31    19    20   ar
    32    20    21   ar
    33    14    15    1
    34    15    16    2
    35    16     8    1
    36    16    11    1
    37     6     1   ar
    38    21    17   ar
    39    37    29    1
    40    37    32    1
    41    25    26    1
    42    25    27    1
