@<TRIPOS>MOLECULE
*****
 43 48 0 0 0
SMALL
GASTEIGER

@<TRIPOS>ATOM
      1 C          63.6092   85.4682   16.1262 C.3     1  UNL1        0.0947
      2 C          63.4762   85.0730   14.6853 C.3     1  UNL1        0.0898
      3 C          63.0404   86.1612   13.7495 C.3     1  UNL1        0.0320
      4 C          62.8174   86.0871   12.2680 C.2     1  UNL1       -0.0374
      5 C          62.3827   87.4107   11.7124 C.2     1  UNL1        0.0048
      6 C          62.1055   87.5538   10.2451 C.2     1  UNL1        0.0761
      7 CL         61.6708   88.8775    9.6895 Cl      1  UNL1       -0.0806
      8 C          62.2631   86.3730    9.3336 C.2     1  UNL1        0.1112
      9 N          62.0632   86.2122    7.8557 N.2     1  UNL1       -0.1474
     10 N          62.3743   84.7891    7.4980 N.2     1  UNL1       -0.1467
     11 C          62.7666   84.0703    8.7548 C.2     1  UNL1        0.1198
     12 C          62.6979   85.0493    9.8893 C.2     1  UNL1        0.0241
     13 C          62.9750   84.9063   11.3565 C.3     1  UNL1        0.0636
     14 C          63.3946   83.5080   11.7013 C.3     1  UNL1        0.1021
     15 N          63.7601   82.9453   13.0428 N.am    1  UNL1       -0.2712
     16 C          63.7965   83.6417   14.3708 C.2     1  UNL1        0.2262
     17 O          64.2074   82.7950   15.5387 O.2     1  UNL1       -0.2749
     18 C          64.1396   81.4942   13.0582 C.3     1  UNL1        0.1973
     19 C          63.0729   80.4398   13.0406 C.3     1  UNL1        0.4157
     20 F          62.0062   79.3853   13.0229 F       1  UNL1       -0.1682
     21 F          62.8850   80.6544   11.5680 F       1  UNL1       -0.1682
     22 F          63.2607   80.2251   14.5132 F       1  UNL1       -0.1682
     23 O          62.3558   87.0106   17.7994 O.2     1  UNL1       -0.2749
     24 C          63.1962   86.8406   16.5687 C.2     1  UNL1        0.2261
     25 N          63.6236   88.0431   15.7804 N.am    1  UNL1       -0.2794
     26 C          63.2107   89.4156   16.2228 C.3     1  UNL1        0.0951
     27 C          63.6381   90.6179   15.4345 C.3     1  UNL1        0.0414
     28 C          64.4785   90.4479   14.2037 C.3     1  UNL1        0.0803
     29 C          64.8915   89.0755   13.7613 C.3     1  UNL1        0.0414
     30 C          64.4641   87.8730   14.5495 C.3     1  UNL1        0.0951
     31 N          64.9059   91.6504   13.4155 N.am    1  UNL1       -0.2651
     32 C          64.5877   91.6149   11.9501 C.3     1  UNL1        0.0996
     33 C          64.8799   92.6496   10.9042 C.3     1  UNL1        0.0491
     34 C          65.5627   93.9754   11.0654 C.ar    1  UNL1       -0.0070
     35 C          65.6533   94.7076    9.7593 C.ar    1  UNL1       -0.0030
     36 C          66.3030   96.0583    9.7002 C.ar    1  UNL1       -0.0002
     37 C          66.8621   96.6768   10.9471 C.ar    1  UNL1        0.0013
     38 C          66.7715   95.9446   12.2532 C.ar    1  UNL1        0.0144
     39 C          66.1218   94.5940   12.3123 C.ar    1  UNL1        0.0476
     40 N          66.1362   94.0396   13.7060 N.am    1  UNL1       -0.2684
     41 C          65.5951   92.7295   14.1969 C.2     1  UNL1        0.3076
     42 O          65.7657   92.4633   15.6633 O.2     1  UNL1       -0.2522
     43 H          66.5564   94.6110   14.3887 H       1  UNL1        0.1564
@<TRIPOS>BOND
     1    23    24    2
     2    24     1    1
     3     2     1    1
     4     2     3    1
     5     3     4    1
     6     4     5    2
     7     5     6    1
     8     6     7    1
     9     6     8    2
    10     8     9    1
    11     9    10    2
    12    10    11    1
    13    11    12    2
    14    12    13    1
    15    13    14    1
    16    14    15    1
    17    15    18    1
    18    18    19    1
    19    19    20    1
    20    19    21    1
    21    19    22    1
    22    15    16   am
    23    16    17    2
    24    24    25   am
    25    25    26    1
    26    26    27    1
    27    27    28    1
    28    28    31    1
    29    31    32    1
    30    32    33    1
    31    33    34    1
    32    34    35   ar
    33    35    36   ar
    34    36    37   ar
    35    37    38   ar
    36    38    39   ar
    37    39    40    1
    38    40    41   am
    39    41    42    2
    40    28    29    1
    41    29    30    1
    42    16     2    1
    43    30    25    1
    44    13     4    1
    45    41    31   am
    46    12     8    1
    47    39    34   ar
    48    40    43    1
@<TRIPOS>MOLECULE
*****
 43 48 0 0 0
SMALL
GASTEIGER

@<TRIPOS>ATOM
      1 C          59.8193   88.0321    9.9707 C.3     1  UNL1        0.0947
      2 C          60.7870   86.8878   10.0349 C.3     1  UNL1        0.0898
      3 C          61.0629   86.3448   11.4056 C.3     1  UNL1        0.0320
      4 C          61.9708   85.2177   11.7999 C.2     1  UNL1       -0.0374
      5 C          61.9569   84.9961   13.2832 C.2     1  UNL1        0.0048
      6 C          62.7993   83.9120   13.8876 C.2     1  UNL1        0.0761
      7 CL         62.7854   83.6904   15.3711 Cl      1  UNL1       -0.0806
      8 C          63.6556   83.0496   13.0084 C.2     1  UNL1        0.1112
      9 N          64.5841   81.9123   13.3159 N.2     1  UNL1       -0.1474
     10 N          65.1718   81.4311   12.0224 N.2     1  UNL1       -0.1467
     11 C          64.6066   82.2710   10.9155 C.2     1  UNL1        0.1198
     12 C          63.6695   83.2713   11.5249 C.2     1  UNL1        0.0241
     13 C          62.8271   84.3553   10.9207 C.3     1  UNL1        0.0636
     14 C          62.9870   84.4070    9.4301 C.3     1  UNL1        0.1021
     15 N          62.3300   85.3339    8.4506 N.am    1  UNL1       -0.2712
     16 C          61.3510   86.4379    8.7198 C.2     1  UNL1        0.2262
     17 O          60.8726   87.1918    7.5144 O.2     1  UNL1       -0.2749
     18 C          62.7013   85.1296    7.0117 C.3     1  UNL1        0.1973
     19 C          61.8182   84.3098    6.1184 C.3     1  UNL1        0.4157
     20 F          60.9351   83.4900    5.2250 F       1  UNL1       -0.1682
     21 F          60.6758   84.5020    7.0712 F       1  UNL1       -0.1682
     22 F          62.9606   84.1177    5.1655 F       1  UNL1       -0.1682
     23 O          59.6527   90.3662    8.8420 O.2     1  UNL1       -0.2749
     24 C          60.3257   89.4343    9.8057 C.2     1  UNL1        0.2261
     25 N          61.5051   89.9047   10.6042 N.am    1  UNL1       -0.2794
     26 C          62.0116   91.3069   10.4392 C.3     1  UNL1        0.0951
     27 C          63.1910   91.7771   11.2377 C.3     1  UNL1        0.0414
     28 C          63.8640   90.8452   12.2014 C.3     1  UNL1        0.0803
     29 C          63.3576   89.4431   12.3664 C.3     1  UNL1        0.0414
     30 C          62.1781   88.9727   11.5679 C.3     1  UNL1        0.0951
     31 N          65.0435   91.3156   12.9999 N.am    1  UNL1       -0.2651
     32 C          66.3003   91.5641   12.2199 C.3     1  UNL1        0.0996
     33 C          67.6341   92.0336   12.7202 C.3     1  UNL1        0.0491
     34 C          68.0406   92.3707   14.1242 C.ar    1  UNL1       -0.0070
     35 C          69.4755   92.8027   14.1906 C.ar    1  UNL1       -0.0030
     36 C          70.0833   93.1854   15.5075 C.ar    1  UNL1       -0.0002
     37 C          69.2564   93.1361   16.7578 C.ar    1  UNL1        0.0013
     38 C          67.8214   92.7041   16.6914 C.ar    1  UNL1        0.0144
     39 C          67.2136   92.3214   15.3747 C.ar    1  UNL1        0.0476
     40 N          65.7758   91.9229   15.5299 N.am    1  UNL1       -0.2684
     41 C          64.8101   91.4753   14.4731 C.2     1  UNL1        0.3076
     42 O          63.4281   91.1435   14.9527 O.2     1  UNL1       -0.2522
     43 H          65.4189   91.9601   16.4467 H       1  UNL1        0.1564
@<TRIPOS>BOND
     1    23    24    2
     2    24     1    1
     3     2     1    1
     4     2     3    1
     5     3     4    1
     6     4     5    2
     7     5     6    1
     8     6     7    1
     9     6     8    2
    10     8     9    1
    11     9    10    2
    12    10    11    1
    13    11    12    2
    14    12    13    1
    15    13    14    1
    16    14    15    1
    17    15    18    1
    18    18    19    1
    19    19    20    1
    20    19    21    1
    21    19    22    1
    22    15    16   am
    23    16    17    2
    24    24    25   am
    25    25    26    1
    26    26    27    1
    27    27    28    1
    28    28    31    1
    29    31    32    1
    30    32    33    1
    31    33    34    1
    32    34    35   ar
    33    35    36   ar
    34    36    37   ar
    35    37    38   ar
    36    38    39   ar
    37    39    40    1
    38    40    41   am
    39    41    42    2
    40    28    29    1
    41    29    30    1
    42    16     2    1
    43    30    25    1
    44    13     4    1
    45    41    31   am
    46    12     8    1
    47    39    34   ar
    48    40    43    1
@<TRIPOS>MOLECULE
*****
 43 48 0 0 0
SMALL
GASTEIGER

@<TRIPOS>ATOM
      1 C          59.1905   92.4048    4.6888 C.3     1  UNL1        0.0947
      2 C          59.7586   92.5538    3.3085 C.3     1  UNL1        0.0898
      3 C          58.7720   92.8977    2.2322 C.3     1  UNL1        0.0320
      4 C          59.0213   93.1119    0.7687 C.2     1  UNL1       -0.0374
      5 C          57.7527   93.4405    0.0390 C.2     1  UNL1        0.0048
      6 C          57.7815   93.6925   -1.4394 C.2     1  UNL1        0.0761
      7 CL         56.5128   94.0211   -2.1691 Cl      1  UNL1       -0.0806
      8 C          59.0790   93.6158   -2.1881 C.2     1  UNL1        0.1112
      9 N          59.4152   93.8136   -3.6365 N.2     1  UNL1       -0.1474
     10 N          60.8917   93.6072   -3.8019 N.2     1  UNL1       -0.1467
     11 C          61.4680   93.2818   -2.4558 C.2     1  UNL1        0.1198
     12 C          60.3477   93.2872   -1.4584 C.2     1  UNL1        0.0241
     13 C          60.3189   93.0352    0.0200 C.3     1  UNL1        0.0636
     14 C          61.6875   92.7254    0.5499 C.3     1  UNL1        0.1021
     15 N          62.0966   92.4157    1.9594 N.am    1  UNL1       -0.2712
     16 C          61.2382   92.3393    3.1871 C.2     1  UNL1        0.2262
     17 O          61.9540   92.0042    4.4620 O.2     1  UNL1       -0.2749
     18 C          63.5574   92.1468    2.1689 C.3     1  UNL1        0.1973
     19 C          64.5697   93.2022    1.8355 C.3     1  UNL1        0.4157
     20 F          65.5820   94.2578    1.5022 F       1  UNL1       -0.1682
     21 F          64.0544   94.0515    2.9594 F       1  UNL1       -0.1682
     22 F          65.0850   92.3530    0.7117 F       1  UNL1       -0.1682
     23 O          57.1087   90.8639    4.4855 O.2     1  UNL1       -0.2749
     24 C          58.4609   91.1504    5.0681 C.2     1  UNL1        0.2261
     25 N          59.0835   90.1823    6.0300 N.am    1  UNL1       -0.2794
     26 C          58.3539   88.9277    6.4093 C.3     1  UNL1        0.0951
     27 C          58.9766   87.9598    7.3712 C.3     1  UNL1        0.0414
     28 C          60.3288   88.2463    7.9538 C.3     1  UNL1        0.0803
     29 C          61.0583   89.5007    7.5745 C.3     1  UNL1        0.0414
     30 C          60.4358   90.4688    6.6126 C.3     1  UNL1        0.0951
     31 N          60.9513   87.2782    8.9157 N.am    1  UNL1       -0.2651
     32 C          61.8216   86.2209    8.3035 C.3     1  UNL1        0.0996
     33 C          62.5767   85.1198    8.9870 C.3     1  UNL1        0.0491
     34 C          62.6481   84.8039   10.4516 C.ar    1  UNL1       -0.0070
     35 C          63.5203   83.6119   10.7133 C.ar    1  UNL1       -0.0030
     36 C          63.7263   83.1273   12.1178 C.ar    1  UNL1       -0.0002
     37 C          63.0603   83.8345   13.2606 C.ar    1  UNL1        0.0013
     38 C          62.1880   85.0265   12.9989 C.ar    1  UNL1        0.0144
     39 C          61.9820   85.5112   11.5944 C.ar    1  UNL1        0.0476
     40 N          61.0800   86.7090   11.5549 N.am    1  UNL1       -0.2684
     41 C          60.6213   87.4954   10.3628 C.2     1  UNL1        0.3076
     42 O          59.7123   88.6519   10.6565 O.2     1  UNL1       -0.2522
     43 H          60.7446   87.0202   12.4267 H       1  UNL1        0.1564
@<TRIPOS>BOND
     1    23    24    2
     2    24     1    1
     3     2     1    1
     4     2     3    1
     5     3     4    1
     6     4     5    2
     7     5     6    1
     8     6     7    1
     9     6     8    2
    10     8     9    1
    11     9    10    2
    12    10    11    1
    13    11    12    2
    14    12    13    1
    15    13    14    1
    16    14    15    1
    17    15    18    1
    18    18    19    1
    19    19    20    1
    20    19    21    1
    21    19    22    1
    22    15    16   am
    23    16    17    2
    24    24    25   am
    25    25    26    1
    26    26    27    1
    27    27    28    1
    28    28    31    1
    29    31    32    1
    30    32    33    1
    31    33    34    1
    32    34    35   ar
    33    35    36   ar
    34    36    37   ar
    35    37    38   ar
    36    38    39   ar
    37    39    40    1
    38    40    41   am
    39    41    42    2
    40    28    29    1
    41    29    30    1
    42    16     2    1
    43    30    25    1
    44    13     4    1
    45    41    31   am
    46    12     8    1
    47    39    34   ar
    48    40    43    1
@<TRIPOS>MOLECULE
*****
 43 48 0 0 0
SMALL
GASTEIGER

@<TRIPOS>ATOM
      1 C          60.4990   88.1880    7.4369 C.3     1  UNL1        0.0947
      2 C          61.1928   88.3173    8.7605 C.3     1  UNL1        0.0898
      3 C          61.8926   89.6215    9.0040 C.3     1  UNL1        0.0320
      4 C          62.6675   90.0557   10.2127 C.2     1  UNL1       -0.0374
      5 C          63.2085   91.4448   10.0468 C.2     1  UNL1        0.0048
      6 C          64.0161   92.0713   11.1448 C.2     1  UNL1        0.0761
      7 CL         64.5571   93.4605   10.9788 Cl      1  UNL1       -0.0806
      8 C          64.2825   91.3086   12.4086 C.2     1  UNL1        0.1112
      9 N          65.0394   91.6630   13.6541 N.2     1  UNL1       -0.1474
     10 N          64.9661   90.4929   14.5898 N.2     1  UNL1       -0.1467
     11 C          64.1640   89.4153   13.9225 C.2     1  UNL1        0.1198
     12 C          63.7414   89.9194   12.5744 C.2     1  UNL1        0.0241
     13 C          62.9339   89.2930   11.4765 C.3     1  UNL1        0.0636
     14 C          62.4913   87.9076   11.8437 C.3     1  UNL1        0.1021
     15 N          61.6729   86.9429   11.0378 N.am    1  UNL1       -0.2712
     16 C          61.0950   87.1251    9.6657 C.2     1  UNL1        0.2262
     17 O          60.3164   85.9615    9.1275 O.2     1  UNL1       -0.2749
     18 C          61.3958   85.6210   11.6904 C.3     1  UNL1        0.1973
     19 C          62.5250   84.6788   11.9855 C.3     1  UNL1        0.4157
     20 F          63.6544   83.7366   12.2805 F       1  UNL1       -0.1682
     21 F          62.7856   84.5306   10.5158 F       1  UNL1       -0.1682
     22 F          62.2646   84.8270   13.4552 F       1  UNL1       -0.1682
     23 O          58.1687   89.3056    7.7022 O.2     1  UNL1       -0.2749
     24 C          59.4973   89.2201    7.0112 C.2     1  UNL1        0.2261
     25 N          59.8242   90.1669    5.8946 N.am    1  UNL1       -0.2794
     26 C          58.8225   91.1991    5.4689 C.3     1  UNL1        0.0951
     27 C          59.1495   92.1457    4.3523 C.3     1  UNL1        0.0414
     28 C          60.4781   92.0603    3.6613 C.3     1  UNL1        0.0803
     29 C          61.4798   91.0281    4.0870 C.3     1  UNL1        0.0414
     30 C          61.1529   90.0814    5.2036 C.3     1  UNL1        0.0951
     31 N          60.8050   93.0070    2.5447 N.am    1  UNL1       -0.2651
     32 C          59.6282   93.6287    1.8529 C.3     1  UNL1        0.0996
     33 C          59.6213   94.6037    0.7131 C.3     1  UNL1        0.0491
     34 C          60.7894   95.1980   -0.0165 C.ar    1  UNL1       -0.0070
     35 C          60.3407   96.1349   -1.0985 C.ar    1  UNL1       -0.0030
     36 C          61.3557   96.8377   -1.9504 C.ar    1  UNL1       -0.0002
     37 C          62.8193   96.6037   -1.7204 C.ar    1  UNL1        0.0013
     38 C          63.2680   95.6667   -0.6383 C.ar    1  UNL1        0.0144
     39 C          62.2531   94.9639    0.2136 C.ar    1  UNL1        0.0476
     40 N          62.9101   94.0778    1.2301 N.am    1  UNL1       -0.2684
     41 C          62.2656   93.2069    2.2675 C.2     1  UNL1        0.3076
     42 O          63.2061   92.4336    3.1436 O.2     1  UNL1       -0.2522
     43 H          63.8944   94.0663    1.2142 H       1  UNL1        0.1564
@<TRIPOS>BOND
     1    23    24    2
     2    24     1    1
     3     2     1    1
     4     2     3    1
     5     3     4    1
     6     4     5    2
     7     5     6    1
     8     6     7    1
     9     6     8    2
    10     8     9    1
    11     9    10    2
    12    10    11    1
    13    11    12    2
    14    12    13    1
    15    13    14    1
    16    14    15    1
    17    15    18    1
    18    18    19    1
    19    19    20    1
    20    19    21    1
    21    19    22    1
    22    15    16   am
    23    16    17    2
    24    24    25   am
    25    25    26    1
    26    26    27    1
    27    27    28    1
    28    28    31    1
    29    31    32    1
    30    32    33    1
    31    33    34    1
    32    34    35   ar
    33    35    36   ar
    34    36    37   ar
    35    37    38   ar
    36    38    39   ar
    37    39    40    1
    38    40    41   am
    39    41    42    2
    40    28    29    1
    41    29    30    1
    42    16     2    1
    43    30    25    1
    44    13     4    1
    45    41    31   am
    46    12     8    1
    47    39    34   ar
    48    40    43    1
@<TRIPOS>MOLECULE
*****
 43 48 0 0 0
SMALL
GASTEIGER

@<TRIPOS>ATOM
      1 C          60.1397   87.6226    7.3710 C.3     1  UNL1        0.0947
      2 C          60.8732   87.5760    8.6786 C.3     1  UNL1        0.0898
      3 C          61.2699   86.2097    9.1540 C.3     1  UNL1        0.0320
      4 C          62.0043   85.8318   10.4061 C.2     1  UNL1       -0.0374
      5 C          62.1997   84.3476   10.5000 C.2     1  UNL1        0.0048
      6 C          62.9143   83.7583   11.6799 C.2     1  UNL1        0.0761
      7 CL         63.1096   82.2740   11.7738 Cl      1  UNL1       -0.0806
      8 C          63.4335   84.6533   12.7659 C.2     1  UNL1        0.1112
      9 N          64.1713   84.3626   14.0391 N.2     1  UNL1       -0.1474
     10 N          64.4319   85.6671   14.7320 N.2     1  UNL1       -0.1467
     11 C          63.8552   86.7642   13.8871 C.2     1  UNL1        0.1198
     12 C          63.2381   86.1376   12.6719 C.2     1  UNL1        0.0241
     13 C          62.5235   86.7268   11.4920 C.3     1  UNL1        0.0636
     14 C          62.4365   88.2209   11.5941 C.3     1  UNL1        0.1021
     15 N          61.8088   89.1888   10.6354 N.am    1  UNL1       -0.2712
     16 C          61.1131   88.9018    9.3379 C.2     1  UNL1        0.2262
     17 O          60.5877   90.0989    8.6025 O.2     1  UNL1       -0.2749
     18 C          61.8872   90.6349   11.0260 C.3     1  UNL1        0.1973
     19 C          63.2139   91.3341   11.0511 C.3     1  UNL1        0.4157
     20 F          64.5408   92.0335   11.0762 F       1  UNL1       -0.1682
     21 F          63.1791   91.4542    9.5563 F       1  UNL1       -0.1682
     22 F          63.2489   91.2142   12.5458 F       1  UNL1       -0.1682
     23 O          57.9376   88.9336    7.7972 O.2     1  UNL1       -0.2749
     24 C          59.2343   88.7773    7.0597 C.2     1  UNL1        0.2261
     25 N          59.6257   89.7758    6.0109 N.am    1  UNL1       -0.2794
     26 C          58.7203   90.9305    5.6996 C.3     1  UNL1        0.0951
     27 C          59.1117   91.9289    4.6509 C.3     1  UNL1        0.0414
     28 C          60.4085   91.7726    3.9134 C.3     1  UNL1        0.0803
     29 C          61.3138   90.6179    4.2246 C.3     1  UNL1        0.0414
     30 C          60.9225   89.6195    5.2734 C.3     1  UNL1        0.0951
     31 N          60.7998   92.7711    2.8646 N.am    1  UNL1       -0.2651
     32 C          59.6662   93.4896    2.1947 C.3     1  UNL1        0.0996
     33 C          59.7259   94.5334    1.1192 C.3     1  UNL1        0.0491
     34 C          60.9338   95.1167    0.4479 C.ar    1  UNL1       -0.0070
     35 C          60.5494   96.1397   -0.5796 C.ar    1  UNL1       -0.0030
     36 C          61.6118   96.8460   -1.3686 C.ar    1  UNL1       -0.0002
     37 C          63.0584   96.5294   -1.1302 C.ar    1  UNL1        0.0013
     38 C          63.4428   95.5063   -0.1027 C.ar    1  UNL1        0.0144
     39 C          62.3805   94.8000    0.6863 C.ar    1  UNL1        0.0476
     40 N          62.9766   93.8220    1.6549 N.am    1  UNL1       -0.2684
     41 C          62.2730   92.9190    2.6243 C.2     1  UNL1        0.3076
     42 O          63.1601   92.0489    3.4647 O.2     1  UNL1       -0.2522
     43 H          63.9594   93.7652    1.6543 H       1  UNL1        0.1564
@<TRIPOS>BOND
     1    23    24    2
     2    24     1    1
     3     2     1    1
     4     2     3    1
     5     3     4    1
     6     4     5    2
     7     5     6    1
     8     6     7    1
     9     6     8    2
    10     8     9    1
    11     9    10    2
    12    10    11    1
    13    11    12    2
    14    12    13    1
    15    13    14    1
    16    14    15    1
    17    15    18    1
    18    18    19    1
    19    19    20    1
    20    19    21    1
    21    19    22    1
    22    15    16   am
    23    16    17    2
    24    24    25   am
    25    25    26    1
    26    26    27    1
    27    27    28    1
    28    28    31    1
    29    31    32    1
    30    32    33    1
    31    33    34    1
    32    34    35   ar
    33    35    36   ar
    34    36    37   ar
    35    37    38   ar
    36    38    39   ar
    37    39    40    1
    38    40    41   am
    39    41    42    2
    40    28    29    1
    41    29    30    1
    42    16     2    1
    43    30    25    1
    44    13     4    1
    45    41    31   am
    46    12     8    1
    47    39    34   ar
    48    40    43    1
