@<TRIPOS>MOLECULE
*****
 43 46 0 0 0
SMALL
GASTEIGER

@<TRIPOS>ATOM
      1 C          60.8325   86.8059   10.0799 C.ar    1  UNL1        0.1586
      2 C          60.4767   86.2475    8.7339 C.ar    1  UNL1        0.0388
      3 C          59.9516   87.1543    7.6606 C.ar    1  UNL1        0.0032
      4 C          59.7823   88.6195    7.9333 C.ar    1  UNL1        0.0014
      5 C          60.1380   89.1780    9.2792 C.ar    1  UNL1        0.0178
      6 C          60.6632   88.2711   10.3525 C.ar    1  UNL1        0.0865
      7 C          59.2572   89.5264    6.8601 C.ar    1  UNL1        0.0001
      8 C          57.7786   89.6490    6.6388 C.ar    1  UNL1        0.0000
      9 C          57.2535   90.5558    5.5656 C.ar    1  UNL1        0.0000
     10 C          58.2069   91.3400    4.7135 C.ar    1  UNL1        0.0011
     11 C          59.6854   91.2175    4.9347 C.ar    1  UNL1        0.0140
     12 C          60.2105   90.3106    6.0080 C.ar    1  UNL1        0.0011
     13 C          60.6387   92.0017    4.0827 C.2     1  UNL1        0.0729
     14 O          60.1574   93.2107    3.3365 O.co2   1  UNL1       -0.5446
     15 O          62.0734   91.5771    3.9768 O.co2   1  UNL1       -0.5446
     16 N          61.0189   88.8296   11.6985 N.am    1  UNL1       -0.2656
     17 C          62.3067   89.5761   11.8842 C.2     1  UNL1        0.3082
     18 O          63.2386   89.7641   10.7240 O.2     1  UNL1       -0.2521
     19 N          62.6624   90.1345   13.2302 N.am    1  UNL1       -0.2681
     20 H          60.4073   88.7062   12.4599 H       1  UNL1        0.1565
     21 H          62.0507   90.0111   13.9917 H       1  UNL1        0.1564
     22 C          63.9501   90.8810   13.4160 C.ar    1  UNL1        0.0518
     23 C          64.3293   91.9722   12.4590 C.ar    1  UNL1        0.0178
     24 C          65.6170   92.7187   12.6447 C.ar    1  UNL1        0.0385
     25 C          66.5256   92.3740   13.7874 C.ar    1  UNL1        0.1469
     26 C          66.1465   91.2829   14.7443 C.ar    1  UNL1        0.0385
     27 C          64.8587   90.5364   14.5586 C.ar    1  UNL1        0.0178
     28 O          67.8133   93.1205   13.9732 O.3     1  UNL1       -0.4045
     29 C          68.6224   92.9214   15.2205 C.3     1  UNL1        0.5753
     30 F          69.4315   92.7224   16.4678 F       1  UNL1       -0.1328
     31 F          69.6255   92.1226   14.4424 F       1  UNL1       -0.1328
     32 F          67.6193   93.7203   15.9987 F       1  UNL1       -0.1328
     33 O          61.3576   85.8991   11.1531 O.3     1  UNL1       -0.4526
     34 C          63.1563   84.2060   11.9584 C.ar    1  UNL1        0.0117
     35 C          64.2623   83.2409   11.6499 C.ar    1  UNL1       -0.0013
     36 C          64.6757   83.0036   10.2277 C.ar    1  UNL1       -0.0001
     37 C          63.9831   83.7314    9.1139 C.ar    1  UNL1        0.0031
     38 C          62.8771   84.6965    9.4224 C.ar    1  UNL1        0.0372
     39 C          62.4637   84.9339   10.8447 C.ar    1  UNL1        0.1413
     40 C          62.0853   83.0956   13.4144 C.3     1  UNL1        0.0045
     41 C          62.7429   84.4434   13.3807 C.3     1  UNL1        0.0218
     42 C          63.4006   85.7911   13.3469 C.3     1  UNL1        0.0045
     43 C          62.3295   84.6807   14.8029 C.3     1  UNL1        0.0045
@<TRIPOS>UNITY_ATOM_ATTR
14 1
charge -1
@<TRIPOS>BOND
     1    40    41    1
     2    41    42    1
     3    41    43    1
     4    41    34    1
     5    34    35   ar
     6    35    36   ar
     7    36    37   ar
     8    37    38   ar
     9    38    39   ar
    10    39    33    1
    11    33     1    1
    12     1     2   ar
    13     2     3   ar
    14     3     4   ar
    15     4     7    1
    16     7     8   ar
    17     8     9   ar
    18     9    10   ar
    19    10    11   ar
    20    11    13    1
    21    13    14   ar
    22    13    15   ar
    23    11    12   ar
    24     4     5   ar
    25     5     6   ar
    26     6    16    1
    27    16    17   am
    28    17    18    2
    29    17    19   am
    30    19    22    1
    31    22    23   ar
    32    23    24   ar
    33    24    25   ar
    34    25    28    1
    35    28    29    1
    36    29    30    1
    37    29    31    1
    38    29    32    1
    39    25    26   ar
    40    26    27   ar
    41    39    34   ar
    42     6     1   ar
    43    27    22   ar
    44    12     7   ar
    45    16    20    1
    46    19    21    1
@<TRIPOS>MOLECULE
*****
 43 46 0 0 0
SMALL
GASTEIGER

@<TRIPOS>ATOM
      1 C          60.9761   86.7301   10.2331 C.ar    1  UNL1        0.1586
      2 C          60.6282   86.1772    8.8828 C.ar    1  UNL1        0.0388
      3 C          60.1885   87.1000    7.7850 C.ar    1  UNL1        0.0032
      4 C          60.0968   88.5758    8.0376 C.ar    1  UNL1        0.0014
      5 C          60.4447   89.1287    9.3878 C.ar    1  UNL1        0.0178
      6 C          60.8844   88.2059   10.4856 C.ar    1  UNL1        0.0865
      7 C          59.6571   89.4986    6.9398 C.ar    1  UNL1        0.0001
      8 C          60.6781   90.1615    6.0633 C.ar    1  UNL1        0.0000
      9 C          60.2385   91.0843    4.9656 C.ar    1  UNL1        0.0000
     10 C          58.7778   91.3443    4.7443 C.ar    1  UNL1        0.0011
     11 C          57.7569   90.6815    5.6208 C.ar    1  UNL1        0.0140
     12 C          58.1965   89.7586    6.7186 C.ar    1  UNL1        0.0011
     13 C          56.2962   90.9415    5.3995 C.2     1  UNL1        0.0729
     14 O          55.2703   90.0979    6.0965 O.co2   1  UNL1       -0.5446
     15 O          55.8616   92.0451    4.4813 O.co2   1  UNL1       -0.5446
     16 N          61.2323   88.7588   11.8358 N.am    1  UNL1       -0.2656
     17 C          62.4921   89.5521   12.0196 C.2     1  UNL1        0.3082
     18 O          63.4039   89.7924   10.8531 O.2     1  UNL1       -0.2521
     19 N          62.8400   90.1050   13.3699 N.am    1  UNL1       -0.2681
     20 H          60.6339   88.6010   12.6015 H       1  UNL1        0.1565
     21 H          62.2415   89.9472   14.1355 H       1  UNL1        0.1564
     22 C          64.0997   90.8983   13.5536 C.ar    1  UNL1        0.0518
     23 C          65.0211   90.5887   14.6961 C.ar    1  UNL1        0.0178
     24 C          66.2808   91.3820   14.8799 C.ar    1  UNL1        0.0385
     25 C          66.6192   92.4849   13.9211 C.ar    1  UNL1        0.1469
     26 C          65.6978   92.7945   12.7786 C.ar    1  UNL1        0.0385
     27 C          64.4381   92.0012   12.5949 C.ar    1  UNL1        0.0178
     28 O          67.8789   93.2782   14.1048 O.3     1  UNL1       -0.4045
     29 C          68.7375   93.0528   15.3140 C.3     1  UNL1        0.5753
     30 F          69.5961   92.8274   16.5231 F       1  UNL1       -0.1328
     31 F          69.7054   92.2668   14.4802 F       1  UNL1       -0.1328
     32 F          67.7696   93.8389   16.1478 F       1  UNL1       -0.1328
     33 O          61.4158   85.8073   11.3308 O.3     1  UNL1       -0.4526
     34 C          63.1879   84.1394   12.2406 C.ar    1  UNL1        0.0117
     35 C          64.2893   83.1515   11.9938 C.ar    1  UNL1       -0.0013
     36 C          64.7200   82.8436   10.5903 C.ar    1  UNL1       -0.0001
     37 C          64.0493   83.5236    9.4337 C.ar    1  UNL1        0.0031
     38 C          62.9480   84.5114    9.6806 C.ar    1  UNL1        0.0372
     39 C          62.5172   84.8193   11.0840 C.ar    1  UNL1        0.1413
     40 C          62.0356   83.1339   13.7108 C.3     1  UNL1        0.0045
     41 C          62.7572   84.4472   13.6441 C.3     1  UNL1        0.0218
     42 C          63.4787   85.7606   13.5774 C.3     1  UNL1        0.0045
     43 C          62.3264   84.7551   15.0475 C.3     1  UNL1        0.0045
@<TRIPOS>UNITY_ATOM_ATTR
14 1
charge -1
@<TRIPOS>BOND
     1    40    41    1
     2    41    42    1
     3    41    43    1
     4    41    34    1
     5    34    35   ar
     6    35    36   ar
     7    36    37   ar
     8    37    38   ar
     9    38    39   ar
    10    39    33    1
    11    33     1    1
    12     1     2   ar
    13     2     3   ar
    14     3     4   ar
    15     4     7    1
    16     7     8   ar
    17     8     9   ar
    18     9    10   ar
    19    10    11   ar
    20    11    13    1
    21    13    14   ar
    22    13    15   ar
    23    11    12   ar
    24     4     5   ar
    25     5     6   ar
    26     6    16    1
    27    16    17   am
    28    17    18    2
    29    17    19   am
    30    19    22    1
    31    22    23   ar
    32    23    24   ar
    33    24    25   ar
    34    25    28    1
    35    28    29    1
    36    29    30    1
    37    29    31    1
    38    29    32    1
    39    25    26   ar
    40    26    27   ar
    41    39    34   ar
    42     6     1   ar
    43    27    22   ar
    44    12     7   ar
    45    16    20    1
    46    19    21    1
@<TRIPOS>MOLECULE
*****
 43 46 0 0 0
SMALL
GASTEIGER

@<TRIPOS>ATOM
      1 C          62.7629   89.4621   11.2793 C.ar    1  UNL1        0.1586
      2 C          62.8118   90.3318   10.0581 C.ar    1  UNL1        0.0388
      3 C          63.6188   91.5961   10.0696 C.ar    1  UNL1        0.0032
      4 C          64.3771   91.9907   11.3022 C.ar    1  UNL1        0.0014
      5 C          64.3283   91.1211   12.5233 C.ar    1  UNL1        0.0178
      6 C          63.5212   89.8567   12.5119 C.ar    1  UNL1        0.0865
      7 C          65.1842   93.2550   11.3136 C.ar    1  UNL1        0.0001
      8 C          65.8155   93.7303   12.5886 C.ar    1  UNL1        0.0000
      9 C          66.6226   94.9946   12.6001 C.ar    1  UNL1        0.0000
     10 C          66.7983   95.7836   11.3365 C.ar    1  UNL1        0.0011
     11 C          66.1671   95.3084   10.0616 C.ar    1  UNL1        0.0140
     12 C          65.3599   94.0441   10.0501 C.ar    1  UNL1        0.0011
     13 C          66.3429   96.0975    8.7981 C.2     1  UNL1        0.0729
     14 O          65.1848   96.8559    8.2202 O.co2   1  UNL1       -0.5446
     15 O          67.6766   96.1281    8.1124 O.co2   1  UNL1       -0.5446
     16 N          63.4724   88.9870   13.7331 N.am    1  UNL1       -0.2656
     17 C          63.5061   87.4940   13.5924 C.2     1  UNL1        0.3082
     18 O          63.5887   86.8707   12.2306 O.2     1  UNL1       -0.2521
     19 N          63.4573   86.6244   14.8137 N.am    1  UNL1       -0.2681
     20 H          63.4182   89.3962   14.6269 H       1  UNL1        0.1565
     21 H          63.4032   87.0335   15.7075 H       1  UNL1        0.1564
     22 C          63.4911   85.1314   14.6730 C.ar    1  UNL1        0.0518
     23 C          64.7688   84.4423   14.2950 C.ar    1  UNL1        0.0178
     24 C          64.8025   82.9493   14.1544 C.ar    1  UNL1        0.0385
     25 C          63.5585   82.1453   14.3917 C.ar    1  UNL1        0.1469
     26 C          62.2810   82.8344   14.7697 C.ar    1  UNL1        0.0385
     27 C          62.2472   84.3274   14.9104 C.ar    1  UNL1        0.0178
     28 O          63.5923   80.6523   14.2511 O.3     1  UNL1       -0.4045
     29 C          63.0124   80.0007   13.0307 C.3     1  UNL1        0.5753
     30 F          62.4326   79.3490   11.8104 F       1  UNL1       -0.1328
     31 F          62.3724   78.9541   13.8938 F       1  UNL1       -0.1328
     32 F          63.6525   81.0473   12.1677 F       1  UNL1       -0.1328
     33 O          61.9559   88.1978   11.2679 O.3     1  UNL1       -0.4526
     34 C          61.2483   86.5251    9.4100 C.ar    1  UNL1        0.0117
     35 C          60.3994   86.1881    8.2202 C.ar    1  UNL1       -0.0013
     36 C          59.4090   87.1865    7.6985 C.ar    1  UNL1       -0.0001
     37 C          59.2675   88.5220    8.3666 C.ar    1  UNL1        0.0031
     38 C          60.1165   88.8591    9.5563 C.ar    1  UNL1        0.0372
     39 C          61.1069   87.8607   10.0780 C.ar    1  UNL1        0.1413
     40 C          63.0078   85.6184    8.6471 C.3     1  UNL1        0.0045
     41 C          62.2387   85.5267    9.9317 C.3     1  UNL1        0.0218
     42 C          61.4697   85.4350   11.2163 C.3     1  UNL1        0.0045
     43 C          63.2292   84.5282   10.4534 C.3     1  UNL1        0.0045
@<TRIPOS>UNITY_ATOM_ATTR
14 1
charge -1
@<TRIPOS>BOND
     1    40    41    1
     2    41    42    1
     3    41    43    1
     4    41    34    1
     5    34    35   ar
     6    35    36   ar
     7    36    37   ar
     8    37    38   ar
     9    38    39   ar
    10    39    33    1
    11    33     1    1
    12     1     2   ar
    13     2     3   ar
    14     3     4   ar
    15     4     7    1
    16     7     8   ar
    17     8     9   ar
    18     9    10   ar
    19    10    11   ar
    20    11    13    1
    21    13    14   ar
    22    13    15   ar
    23    11    12   ar
    24     4     5   ar
    25     5     6   ar
    26     6    16    1
    27    16    17   am
    28    17    18    2
    29    17    19   am
    30    19    22    1
    31    22    23   ar
    32    23    24   ar
    33    24    25   ar
    34    25    28    1
    35    28    29    1
    36    29    30    1
    37    29    31    1
    38    29    32    1
    39    25    26   ar
    40    26    27   ar
    41    39    34   ar
    42     6     1   ar
    43    27    22   ar
    44    12     7   ar
    45    16    20    1
    46    19    21    1
@<TRIPOS>MOLECULE
*****
 43 46 0 0 0
SMALL
GASTEIGER

@<TRIPOS>ATOM
      1 C          62.7040   88.4750   11.9605 C.ar    1  UNL1        0.1586
      2 C          62.7638   89.6903   11.0831 C.ar    1  UNL1        0.0388
      3 C          63.6181   90.8585   11.4772 C.ar    1  UNL1        0.0032
      4 C          64.4125   90.8117   12.7487 C.ar    1  UNL1        0.0014
      5 C          64.3528   89.5966   13.6260 C.ar    1  UNL1        0.0178
      6 C          63.4985   88.4282   13.2320 C.ar    1  UNL1        0.0865
      7 C          65.2668   91.9800   13.1428 C.ar    1  UNL1        0.0001
      8 C          65.9414   91.9978   14.4824 C.ar    1  UNL1        0.0000
      9 C          66.7956   93.1660   14.8765 C.ar    1  UNL1        0.0000
     10 C          66.9753   94.3166   13.9310 C.ar    1  UNL1        0.0011
     11 C          66.3008   94.2988   12.5914 C.ar    1  UNL1        0.0140
     12 C          65.4465   93.1305   12.1972 C.ar    1  UNL1        0.0011
     13 C          66.4805   95.4493   11.6459 C.2     1  UNL1        0.0729
     14 O          67.3037   95.2777   10.4037 O.co2   1  UNL1       -0.5446
     15 O          65.8370   96.7714   11.9425 O.co2   1  UNL1       -0.5446
     16 N          63.4387   87.2131   14.1093 N.am    1  UNL1       -0.2656
     17 C          63.3237   85.8494   13.4951 C.2     1  UNL1        0.3082
     18 O          63.2684   85.7009   12.0036 O.2     1  UNL1       -0.2521
     19 N          63.2639   84.6342   14.3726 N.am    1  UNL1       -0.2681
     20 H          63.4750   87.3105   15.0883 H       1  UNL1        0.1565
     21 H          63.3002   84.7317   15.3516 H       1  UNL1        0.1564
     22 C          63.1489   83.2706   13.7584 C.ar    1  UNL1        0.0518
     23 C          64.1976   82.7887   12.8002 C.ar    1  UNL1        0.0178
     24 C          64.0826   81.4251   12.1860 C.ar    1  UNL1        0.0385
     25 C          62.9188   80.5433   12.5300 C.ar    1  UNL1        0.1469
     26 C          61.8702   81.0252   13.4881 C.ar    1  UNL1        0.0385
     27 C          61.9852   82.3888   14.1023 C.ar    1  UNL1        0.0178
     28 O          62.8038   79.1797   11.9158 O.3     1  UNL1       -0.4045
     29 C          62.8881   79.0182   10.4268 C.3     1  UNL1        0.5753
     30 F          62.9724   78.8568    8.9380 F       1  UNL1       -0.1328
     31 F          62.8167   80.5073   10.2614 F       1  UNL1       -0.1328
     32 F          62.9595   77.5291   10.5923 F       1  UNL1       -0.1328
     33 O          61.8498   87.3068   11.5664 O.3     1  UNL1       -0.4526
     34 C          60.1282   88.2694    9.8753 C.ar    1  UNL1        0.0117
     35 C          59.4774   88.2381    8.5243 C.ar    1  UNL1       -0.0013
     36 C          59.8974   87.2128    7.5131 C.ar    1  UNL1       -0.0001
     37 C          60.9681   86.2189    7.8530 C.ar    1  UNL1        0.0031
     38 C          61.6189   86.2502    9.2041 C.ar    1  UNL1        0.0372
     39 C          61.1989   87.2755   10.2153 C.ar    1  UNL1        0.1413
     40 C          59.2469   88.2011   11.8037 C.3     1  UNL1        0.0045
     41 C          59.7083   89.2947   10.8865 C.3     1  UNL1        0.0218
     42 C          60.1696   90.3882    9.9693 C.3     1  UNL1        0.0045
     43 C          59.2883   90.3200   11.8977 C.3     1  UNL1        0.0045
@<TRIPOS>UNITY_ATOM_ATTR
14 1
charge -1
@<TRIPOS>BOND
     1    40    41    1
     2    41    42    1
     3    41    43    1
     4    41    34    1
     5    34    35   ar
     6    35    36   ar
     7    36    37   ar
     8    37    38   ar
     9    38    39   ar
    10    39    33    1
    11    33     1    1
    12     1     2   ar
    13     2     3   ar
    14     3     4   ar
    15     4     7    1
    16     7     8   ar
    17     8     9   ar
    18     9    10   ar
    19    10    11   ar
    20    11    13    1
    21    13    14   ar
    22    13    15   ar
    23    11    12   ar
    24     4     5   ar
    25     5     6   ar
    26     6    16    1
    27    16    17   am
    28    17    18    2
    29    17    19   am
    30    19    22    1
    31    22    23   ar
    32    23    24   ar
    33    24    25   ar
    34    25    28    1
    35    28    29    1
    36    29    30    1
    37    29    31    1
    38    29    32    1
    39    25    26   ar
    40    26    27   ar
    41    39    34   ar
    42     6     1   ar
    43    27    22   ar
    44    12     7   ar
    45    16    20    1
    46    19    21    1
@<TRIPOS>MOLECULE
*****
 43 46 0 0 0
SMALL
GASTEIGER

@<TRIPOS>ATOM
      1 C          62.7999   88.5052   11.9376 C.ar    1  UNL1        0.1586
      2 C          62.8641   89.7128   11.0500 C.ar    1  UNL1        0.0388
      3 C          63.6948   90.8954   11.4516 C.ar    1  UNL1        0.0032
      4 C          64.4614   90.8704   12.7407 C.ar    1  UNL1        0.0014
      5 C          64.3972   89.6629   13.6282 C.ar    1  UNL1        0.0178
      6 C          63.5665   88.4802   13.2267 C.ar    1  UNL1        0.0865
      7 C          65.2921   92.0530   13.1422 C.ar    1  UNL1        0.0001
      8 C          65.9204   92.1008   14.5036 C.ar    1  UNL1        0.0000
      9 C          66.7511   93.2834   14.9051 C.ar    1  UNL1        0.0000
     10 C          66.9536   94.4183   13.9454 C.ar    1  UNL1        0.0011
     11 C          66.3254   94.3706   12.5842 C.ar    1  UNL1        0.0140
     12 C          65.4947   93.1879   12.1826 C.ar    1  UNL1        0.0011
     13 C          66.5280   95.5055   11.6245 C.2     1  UNL1        0.0729
     14 O          65.9455   96.8548   11.9249 O.co2   1  UNL1       -0.5446
     15 O          67.3129   95.2911   10.3644 O.co2   1  UNL1       -0.5446
     16 N          63.5023   87.2727   14.1142 N.am    1  UNL1       -0.2656
     17 C          63.3815   85.9045   13.5115 C.2     1  UNL1        0.3082
     18 O          63.3248   85.7437   12.0212 O.2     1  UNL1       -0.2521
     19 N          63.3173   84.6969   14.3991 N.am    1  UNL1       -0.2681
     20 H          63.5395   87.3782   15.0923 H       1  UNL1        0.1565
     21 H          63.3545   84.8024   15.3772 H       1  UNL1        0.1564
     22 C          63.1965   83.3287   13.7963 C.ar    1  UNL1        0.0518
     23 C          64.2878   82.7987   12.9141 C.ar    1  UNL1        0.0178
     24 C          64.1669   81.4304   12.3114 C.ar    1  UNL1        0.0385
     25 C          62.9548   80.5922   12.5909 C.ar    1  UNL1        0.1469
     26 C          61.8635   81.1221   13.4731 C.ar    1  UNL1        0.0385
     27 C          61.9844   82.4904   14.0758 C.ar    1  UNL1        0.0178
     28 O          62.8339   79.2239   11.9882 O.3     1  UNL1       -0.4045
     29 C          62.8762   79.0542   10.4983 C.3     1  UNL1        0.5753
     30 F          62.9186   78.8846    9.0086 F       1  UNL1       -0.1328
     31 F          62.8487   80.5442   10.3279 F       1  UNL1       -0.1328
     32 F          62.9037   77.5642   10.6688 F       1  UNL1       -0.1328
     33 O          61.9691   87.3226   11.5360 O.3     1  UNL1       -0.4526
     34 C          61.4126   86.3248    9.2026 C.ar    1  UNL1        0.0117
     35 C          60.6209   86.3621    7.9291 C.ar    1  UNL1       -0.0013
     36 C          59.5941   87.4344    7.7155 C.ar    1  UNL1       -0.0001
     37 C          59.3589   88.4695    8.7753 C.ar    1  UNL1        0.0031
     38 C          60.1506   88.4322   10.0488 C.ar    1  UNL1        0.0372
     39 C          61.1774   87.3598   10.2625 C.ar    1  UNL1        0.1413
     40 C          61.6338   84.7085   10.5586 C.3     1  UNL1        0.0045
     41 C          62.4395   85.2524    9.4162 C.3     1  UNL1        0.0218
     42 C          63.2452   85.7964    8.2739 C.3     1  UNL1        0.0045
     43 C          63.4663   84.1801    9.6299 C.3     1  UNL1        0.0045
@<TRIPOS>UNITY_ATOM_ATTR
14 1
charge -1
@<TRIPOS>BOND
     1    40    41    1
     2    41    42    1
     3    41    43    1
     4    41    34    1
     5    34    35   ar
     6    35    36   ar
     7    36    37   ar
     8    37    38   ar
     9    38    39   ar
    10    39    33    1
    11    33     1    1
    12     1     2   ar
    13     2     3   ar
    14     3     4   ar
    15     4     7    1
    16     7     8   ar
    17     8     9   ar
    18     9    10   ar
    19    10    11   ar
    20    11    13    1
    21    13    14   ar
    22    13    15   ar
    23    11    12   ar
    24     4     5   ar
    25     5     6   ar
    26     6    16    1
    27    16    17   am
    28    17    18    2
    29    17    19   am
    30    19    22    1
    31    22    23   ar
    32    23    24   ar
    33    24    25   ar
    34    25    28    1
    35    28    29    1
    36    29    30    1
    37    29    31    1
    38    29    32    1
    39    25    26   ar
    40    26    27   ar
    41    39    34   ar
    42     6     1   ar
    43    27    22   ar
    44    12     7   ar
    45    16    20    1
    46    19    21    1
@<TRIPOS>MOLECULE
*****
 43 46 0 0 0
SMALL
GASTEIGER

@<TRIPOS>ATOM
      1 C          62.7612   88.6697   12.1535 C.ar    1  UNL1        0.1586
      2 C          62.7387   89.8863   11.2763 C.ar    1  UNL1        0.0388
      3 C          63.6343   91.0495   11.5841 C.ar    1  UNL1        0.0032
      4 C          64.5525   90.9962   12.7691 C.ar    1  UNL1        0.0014
      5 C          64.5751   89.7796   13.6462 C.ar    1  UNL1        0.0178
      6 C          63.6794   88.6163   13.3384 C.ar    1  UNL1        0.0865
      7 C          65.4481   92.1594   13.0769 C.ar    1  UNL1        0.0001
      8 C          65.4960   93.3357   12.1472 C.ar    1  UNL1        0.0000
      9 C          66.3916   94.4989   12.4550 C.ar    1  UNL1        0.0000
     10 C          67.2393   94.4859   13.6924 C.ar    1  UNL1        0.0011
     11 C          67.1915   93.3097   14.6220 C.ar    1  UNL1        0.0140
     12 C          66.2958   92.1464   14.3143 C.ar    1  UNL1        0.0011
     13 C          68.0392   93.2967   15.8594 C.2     1  UNL1        0.0729
     14 O          68.7162   94.5543   16.3180 O.co2   1  UNL1       -0.5446
     15 O          68.2100   92.0262   16.6382 O.co2   1  UNL1       -0.5446
     16 N          63.7020   87.3997   14.2155 N.am    1  UNL1       -0.2656
     17 C          63.5131   86.0384   13.6148 C.2     1  UNL1        0.3082
     18 O          63.3015   85.8935   12.1369 O.2     1  UNL1       -0.2521
     19 N          63.5357   84.8218   14.4920 N.am    1  UNL1       -0.2681
     20 H          63.8409   87.4948   15.1855 H       1  UNL1        0.1565
     21 H          63.6745   84.9168   15.4620 H       1  UNL1        0.1564
     22 C          63.3467   83.4604   13.8912 C.ar    1  UNL1        0.0518
     23 C          64.3867   82.8967   12.9687 C.ar    1  UNL1        0.0178
     24 C          64.1977   81.5353   12.3680 C.ar    1  UNL1        0.0385
     25 C          62.9688   80.7376   12.6897 C.ar    1  UNL1        0.1469
     26 C          61.9289   81.3012   13.6121 C.ar    1  UNL1        0.0385
     27 C          62.1179   82.6626   14.2129 C.ar    1  UNL1        0.0178
     28 O          62.7798   79.3762   12.0889 O.3     1  UNL1       -0.4045
     29 C          62.8018   79.2043   10.5989 C.3     1  UNL1        0.5753
     30 F          62.8239   79.0325    9.1090 F       1  UNL1       -0.1328
     31 F          62.7482   80.6934   10.4264 F       1  UNL1       -0.1328
     32 F          62.8555   77.7153   10.7714 F       1  UNL1       -0.1328
     33 O          61.8656   87.5065   11.8457 O.3     1  UNL1       -0.4526
     34 C          60.2210   88.2628    9.9820 C.ar    1  UNL1        0.0117
     35 C          59.6552   88.0962    8.6029 C.ar    1  UNL1       -0.0013
     36 C          60.1680   87.0069    7.7083 C.ar    1  UNL1       -0.0001
     37 C          61.2467   86.0841    8.1928 C.ar    1  UNL1        0.0031
     38 C          61.8125   86.2506    9.5719 C.ar    1  UNL1        0.0372
     39 C          61.2997   87.3400   10.4665 C.ar    1  UNL1        0.1413
     40 C          60.2307   90.3832    9.9207 C.3     1  UNL1        0.0045
     41 C          59.7082   89.3521   10.8766 C.3     1  UNL1        0.0218
     42 C          59.1856   88.3210   11.8325 C.3     1  UNL1        0.0045
     43 C          59.1953   90.4415   11.7712 C.3     1  UNL1        0.0045
@<TRIPOS>UNITY_ATOM_ATTR
14 1
charge -1
@<TRIPOS>BOND
     1    40    41    1
     2    41    42    1
     3    41    43    1
     4    41    34    1
     5    34    35   ar
     6    35    36   ar
     7    36    37   ar
     8    37    38   ar
     9    38    39   ar
    10    39    33    1
    11    33     1    1
    12     1     2   ar
    13     2     3   ar
    14     3     4   ar
    15     4     7    1
    16     7     8   ar
    17     8     9   ar
    18     9    10   ar
    19    10    11   ar
    20    11    13    1
    21    13    14   ar
    22    13    15   ar
    23    11    12   ar
    24     4     5   ar
    25     5     6   ar
    26     6    16    1
    27    16    17   am
    28    17    18    2
    29    17    19   am
    30    19    22    1
    31    22    23   ar
    32    23    24   ar
    33    24    25   ar
    34    25    28    1
    35    28    29    1
    36    29    30    1
    37    29    31    1
    38    29    32    1
    39    25    26   ar
    40    26    27   ar
    41    39    34   ar
    42     6     1   ar
    43    27    22   ar
    44    12     7   ar
    45    16    20    1
    46    19    21    1
@<TRIPOS>MOLECULE
*****
 43 46 0 0 0
SMALL
GASTEIGER

@<TRIPOS>ATOM
      1 C          63.7194   84.8611   14.3982 C.ar    1  UNL1        0.1586
      2 C          64.3285   85.3361   15.6842 C.ar    1  UNL1        0.0388
      3 C          64.5407   86.8026   15.9168 C.ar    1  UNL1        0.0032
      4 C          64.1439   87.7942   14.8636 C.ar    1  UNL1        0.0014
      5 C          63.5349   87.3193   13.5777 C.ar    1  UNL1        0.0178
      6 C          63.3226   85.8527   13.3450 C.ar    1  UNL1        0.0865
      7 C          64.3561   89.2608   15.0962 C.ar    1  UNL1        0.0001
      8 C          63.6702   89.9456   16.2411 C.ar    1  UNL1        0.0000
      9 C          63.8824   91.4121   16.4737 C.ar    1  UNL1        0.0000
     10 C          64.7806   92.1939   15.5615 C.ar    1  UNL1        0.0011
     11 C          65.4665   91.5092   14.4167 C.ar    1  UNL1        0.0140
     12 C          65.2543   90.0426   14.1841 C.ar    1  UNL1        0.0011
     13 C          66.3647   92.2910   13.5046 C.2     1  UNL1        0.0729
     14 O          67.8445   92.0460   13.5184 O.co2   1  UNL1       -0.5446
     15 O          65.7831   93.3178   12.5786 O.co2   1  UNL1       -0.5446
     16 N          62.7136   85.3777   12.0592 N.am    1  UNL1       -0.2656
     17 C          61.9756   86.3414   11.1779 C.2     1  UNL1        0.3082
     18 O          61.8466   87.7800   11.5825 O.2     1  UNL1       -0.2521
     19 N          61.3665   85.8664    9.8920 N.am    1  UNL1       -0.2681
     20 H          62.7983   84.4335   11.7936 H       1  UNL1        0.1565
     21 H          61.4512   84.9222    9.6264 H       1  UNL1        0.1564
     22 C          60.6285   86.8301    9.0107 C.ar    1  UNL1        0.0518
     23 C          59.7627   86.3171    7.8983 C.ar    1  UNL1        0.0178
     24 C          59.0246   87.2808    7.0170 C.ar    1  UNL1        0.0385
     25 C          59.1524   88.7574    7.2481 C.ar    1  UNL1        0.1469
     26 C          60.0182   89.2703    8.3604 C.ar    1  UNL1        0.0385
     27 C          60.7562   88.3066    9.2417 C.ar    1  UNL1        0.0178
     28 O          58.4144   89.7210    6.3668 O.3     1  UNL1       -0.4045
     29 C          59.1734   90.7367    5.5652 C.3     1  UNL1        0.5753
     30 F          59.9323   91.7523    4.7637 F       1  UNL1       -0.1328
     31 F          57.9742   91.6376    5.5714 F       1  UNL1       -0.1328
     32 F          60.3726   89.8357    5.5591 F       1  UNL1       -0.1328
     33 O          63.5072   83.3945   14.1656 O.3     1  UNL1       -0.4526
     34 C          62.8129   81.6422   12.3774 C.ar    1  UNL1        0.0117
     35 C          62.9432   81.0757   10.9947 C.ar    1  UNL1       -0.0013
     36 C          63.8980   81.6948   10.0174 C.ar    1  UNL1       -0.0001
     37 C          64.7225   82.8804   10.4228 C.ar    1  UNL1        0.0031
     38 C          64.5922   83.4470   11.8055 C.ar    1  UNL1        0.0372
     39 C          63.6374   82.8279   12.7828 C.ar    1  UNL1        0.1413
     40 C          61.3123   82.3815   13.6819 C.3     1  UNL1        0.0045
     41 C          61.8582   81.0232   13.3547 C.3     1  UNL1        0.0218
     42 C          62.4040   79.6648   13.0275 C.3     1  UNL1        0.0045
     43 C          60.9034   80.4041   14.3321 C.3     1  UNL1        0.0045
@<TRIPOS>UNITY_ATOM_ATTR
14 1
charge -1
@<TRIPOS>BOND
     1    40    41    1
     2    41    42    1
     3    41    43    1
     4    41    34    1
     5    34    35   ar
     6    35    36   ar
     7    36    37   ar
     8    37    38   ar
     9    38    39   ar
    10    39    33    1
    11    33     1    1
    12     1     2   ar
    13     2     3   ar
    14     3     4   ar
    15     4     7    1
    16     7     8   ar
    17     8     9   ar
    18     9    10   ar
    19    10    11   ar
    20    11    13    1
    21    13    14   ar
    22    13    15   ar
    23    11    12   ar
    24     4     5   ar
    25     5     6   ar
    26     6    16    1
    27    16    17   am
    28    17    18    2
    29    17    19   am
    30    19    22    1
    31    22    23   ar
    32    23    24   ar
    33    24    25   ar
    34    25    28    1
    35    28    29    1
    36    29    30    1
    37    29    31    1
    38    29    32    1
    39    25    26   ar
    40    26    27   ar
    41    39    34   ar
    42     6     1   ar
    43    27    22   ar
    44    12     7   ar
    45    16    20    1
    46    19    21    1
@<TRIPOS>MOLECULE
*****
 43 46 0 0 0
SMALL
GASTEIGER

@<TRIPOS>ATOM
      1 C          63.5853   88.9342   12.3465 C.ar    1  UNL1        0.1586
      2 C          63.1606   90.1497   11.5768 C.ar    1  UNL1        0.0388
      3 C          62.1450   90.0258   10.4800 C.ar    1  UNL1        0.0032
      4 C          61.5540   88.6865   10.1528 C.ar    1  UNL1        0.0014
      5 C          61.9786   87.4711   10.9225 C.ar    1  UNL1        0.0178
      6 C          62.9944   87.5949   12.0194 C.ar    1  UNL1        0.0865
      7 C          60.5383   88.5626    9.0560 C.ar    1  UNL1        0.0001
      8 C          59.6183   87.3785    9.0160 C.ar    1  UNL1        0.0000
      9 C          58.6026   87.2546    7.9192 C.ar    1  UNL1        0.0000
     10 C          58.5069   88.3148    6.8624 C.ar    1  UNL1        0.0011
     11 C          59.4269   89.4989    6.9024 C.ar    1  UNL1        0.0140
     12 C          60.4426   89.6228    7.9992 C.ar    1  UNL1        0.0011
     13 C          59.3312   90.5590    5.8455 C.2     1  UNL1        0.0729
     14 O          58.0006   91.1641    5.5085 O.co2   1  UNL1       -0.5446
     15 O          60.5659   91.0142    5.1258 O.co2   1  UNL1       -0.5446
     16 N          63.4190   86.3795   12.7890 N.am    1  UNL1       -0.2656
     17 C          63.1479   85.0107   12.2387 C.2     1  UNL1        0.3082
     18 O          62.4521   84.8573   10.9188 O.2     1  UNL1       -0.2521
     19 N          63.5726   83.7953   13.0085 N.am    1  UNL1       -0.2681
     20 H          63.8757   86.4802   13.6554 H       1  UNL1        0.1565
     21 H          64.0293   83.8960   13.8748 H       1  UNL1        0.1564
     22 C          63.3015   82.4264   12.4582 C.ar    1  UNL1        0.0518
     23 C          62.8279   81.3323   13.3686 C.ar    1  UNL1        0.0178
     24 C          62.5568   79.9635   12.8183 C.ar    1  UNL1        0.0385
     25 C          62.7592   79.6888   11.3576 C.ar    1  UNL1        0.1469
     26 C          63.2327   80.7829   10.4472 C.ar    1  UNL1        0.0385
     27 C          63.5038   82.1517   10.9975 C.ar    1  UNL1        0.0178
     28 O          62.4880   78.3200   10.8073 O.3     1  UNL1       -0.4045
     29 C          63.5161   77.6373    9.9545 C.3     1  UNL1        0.5753
     30 F          64.5440   76.9547    9.1017 F       1  UNL1       -0.1328
     31 F          63.5040   78.8012    9.0083 F       1  UNL1       -0.1328
     32 F          63.5282   76.4735   10.9006 F       1  UNL1       -0.1328
     33 O          64.6010   89.0581   13.4433 O.3     1  UNL1       -0.4526
     34 C          65.0980   91.2504   14.7460 C.ar    1  UNL1        0.0117
     35 C          64.8356   92.1563   15.9124 C.ar    1  UNL1       -0.0013
     36 C          63.8137   91.7759   16.9425 C.ar    1  UNL1       -0.0001
     37 C          63.0543   90.4895   16.8062 C.ar    1  UNL1        0.0031
     38 C          63.3167   89.5837   15.6398 C.ar    1  UNL1        0.0372
     39 C          64.3386   89.9641   14.6098 C.ar    1  UNL1        0.1413
     40 C          67.2045   91.0611   14.5815 C.3     1  UNL1        0.0045
     41 C          66.1199   91.6308   13.7160 C.3     1  UNL1        0.0218
     42 C          65.0353   92.2005   12.8504 C.3     1  UNL1        0.0045
     43 C          67.1418   92.0112   12.6859 C.3     1  UNL1        0.0045
@<TRIPOS>UNITY_ATOM_ATTR
14 1
charge -1
@<TRIPOS>BOND
     1    40    41    1
     2    41    42    1
     3    41    43    1
     4    41    34    1
     5    34    35   ar
     6    35    36   ar
     7    36    37   ar
     8    37    38   ar
     9    38    39   ar
    10    39    33    1
    11    33     1    1
    12     1     2   ar
    13     2     3   ar
    14     3     4   ar
    15     4     7    1
    16     7     8   ar
    17     8     9   ar
    18     9    10   ar
    19    10    11   ar
    20    11    13    1
    21    13    14   ar
    22    13    15   ar
    23    11    12   ar
    24     4     5   ar
    25     5     6   ar
    26     6    16    1
    27    16    17   am
    28    17    18    2
    29    17    19   am
    30    19    22    1
    31    22    23   ar
    32    23    24   ar
    33    24    25   ar
    34    25    28    1
    35    28    29    1
    36    29    30    1
    37    29    31    1
    38    29    32    1
    39    25    26   ar
    40    26    27   ar
    41    39    34   ar
    42     6     1   ar
    43    27    22   ar
    44    12     7   ar
    45    16    20    1
    46    19    21    1
