@<TRIPOS>MOLECULE
*****
 30 32 0 0 0
SMALL
GASTEIGER

@<TRIPOS>ATOM
      1 C          63.5831   87.3725   13.3383 C.ar    1  UNL1        0.0000
      2 C          62.7668   86.6310   12.3216 C.ar    1  UNL1       -0.0002
      3 C          62.4997   85.1656   12.4983 C.ar    1  UNL1       -0.0017
      4 C          63.0489   84.4417   13.6918 C.ar    1  UNL1        0.0070
      5 C          63.8653   85.1833   14.7085 C.ar    1  UNL1       -0.0017
      6 C          64.1324   86.6486   14.5317 C.ar    1  UNL1       -0.0002
      7 C          64.9389   91.0435   13.9985 C.ar    1  UNL1        0.1219
      8 C          64.3846   91.7687   12.8082 C.ar    1  UNL1        0.0199
      9 C          63.5631   91.0286   11.7946 C.ar    1  UNL1        0.0014
     10 C          63.2960   89.5632   11.9713 C.ar    1  UNL1        0.0001
     11 C          63.8503   88.8380   13.1616 C.ar    1  UNL1        0.0013
     12 C          64.6718   89.5781   14.1751 C.ar    1  UNL1        0.0199
     13 S          65.7604   91.7837   15.0121 S.O2    1  UNL1        0.0603
     14 O          64.5447   91.9518   15.8745 O.2     1  UNL1       -0.1530
     15 O          66.9761   91.6155   14.1496 O.2     1  UNL1       -0.1530
     16 C          68.0682   92.3279   16.0740 C.3     1  UNL1        0.1102
     17 N          66.5819   92.5238   16.0256 N.3     1  UNL1       -0.1779
     18 H          66.4210   93.5182   15.8656 H       1  UNL1        0.1488
     19 C          62.7818   82.9763   13.8685 C.3     1  UNL1        0.1410
     20 O          62.2060   83.2452   15.2272 O.3     1  UNL1       -0.3771
     21 H          62.2448   84.1966   15.4123 H       1  UNL1        0.2112
     22 C          63.3575   82.7075   12.5098 C.ar    1  UNL1        0.0825
     23 C          64.7141   83.1288   12.0279 C.ar    1  UNL1        0.1157
     24 N          64.8728   82.6518   10.6146 N.ar    1  UNL1       -0.2228
     25 C          63.6143   81.9357   10.2230 C.ar    1  UNL1        0.1749
     26 N          62.6778   81.9701   11.3943 N.ar    1  UNL1       -0.3361
     27 H          61.7755   81.5776   11.4254 H       1  UNL1        0.1673
     28 C          62.5147   81.5110   14.0453 C.3     1  UNL1        0.0340
     29 C          63.6590   80.5450   14.1316 C.3     1  UNL1        0.0031
     30 C          61.1031   81.0114   14.1357 C.3     1  UNL1        0.0031
@<TRIPOS>BOND
     1    16    17    1
     2    17    13    1
     3    13    14    2
     4    13    15    2
     5    13     7    1
     6     7     8   ar
     7     8     9   ar
     8     9    10   ar
     9    10    11   ar
    10    11     1    1
    11     1     2   ar
    12     2     3   ar
    13     3     4   ar
    14     4    19    1
    15    19    20    1
    16    19    22    1
    17    22    23   ar
    18    23    24   ar
    19    24    25   ar
    20    25    26   ar
    21    19    28    1
    22    28    29    1
    23    28    30    1
    24     4     5   ar
    25     5     6   ar
    26    11    12   ar
    27    12     7   ar
    28     6     1   ar
    29    26    22   ar
    30    17    18    1
    31    20    21    1
    32    26    27    1
@<TRIPOS>MOLECULE
*****
 30 32 0 0 0
SMALL
GASTEIGER

@<TRIPOS>ATOM
      1 C          63.0526   89.1799   11.6894 C.ar    1  UNL1        0.0000
      2 C          63.6417   88.7748   13.0080 C.ar    1  UNL1       -0.0002
      3 C          64.4803   89.7461   13.7849 C.ar    1  UNL1       -0.0017
      4 C          64.7297   91.1224   13.2432 C.ar    1  UNL1        0.0070
      5 C          64.1405   91.5275   11.9245 C.ar    1  UNL1       -0.0017
      6 C          63.3020   90.5562   11.1476 C.ar    1  UNL1       -0.0002
      7 C          60.4900   87.7289    9.0290 C.ar    1  UNL1        0.1219
      8 C          60.5370   86.2663    9.3586 C.ar    1  UNL1        0.0199
      9 C          61.4225   85.7749   10.4651 C.ar    1  UNL1        0.0014
     10 C          62.2610   86.7461   11.2420 C.ar    1  UNL1        0.0001
     11 C          62.2140   88.2086   10.9124 C.ar    1  UNL1        0.0013
     12 C          61.3285   88.7000    9.8059 C.ar    1  UNL1        0.0199
     13 S          59.6045   88.2203    7.9224 S.O2    1  UNL1        0.0603
     14 O          60.1611   89.6029    8.0911 O.2     1  UNL1       -0.1530
     15 O          59.0479   86.8376    7.7538 O.2     1  UNL1       -0.1530
     16 C          59.0956   89.9413    6.0439 C.3     1  UNL1        0.1102
     17 N          58.7190   88.7116    6.8159 N.3     1  UNL1       -0.1779
     18 H          58.6429   87.9515    6.1401 H       1  UNL1        0.1488
     19 C          65.5682   92.0936   14.0200 C.3     1  UNL1        0.1410
     20 O          64.6402   91.9584   15.1907 O.3     1  UNL1       -0.3771
     21 H          63.9289   91.3371   14.9694 H       1  UNL1        0.2112
     22 C          66.4961   92.2289   12.8494 C.ar    1  UNL1        0.0825
     23 C          67.8775   91.6529   12.7480 C.ar    1  UNL1        0.1157
     24 N          68.4408   92.0319   11.4104 N.ar    1  UNL1       -0.2228
     25 C          67.4076   92.8421   10.6851 C.ar    1  UNL1        0.1749
     26 N          66.2058   92.9639   11.5743 N.ar    1  UNL1       -0.3361
     27 H          65.3726   93.4422   11.3590 H       1  UNL1        0.1673
     28 C          66.4067   93.0649   14.7969 C.3     1  UNL1        0.0340
     29 C          66.8162   94.3670   14.1750 C.3     1  UNL1        0.0031
     30 C          66.8357   92.7340   16.1957 C.3     1  UNL1        0.0031
@<TRIPOS>BOND
     1    16    17    1
     2    17    13    1
     3    13    14    2
     4    13    15    2
     5    13     7    1
     6     7     8   ar
     7     8     9   ar
     8     9    10   ar
     9    10    11   ar
    10    11     1    1
    11     1     2   ar
    12     2     3   ar
    13     3     4   ar
    14     4    19    1
    15    19    20    1
    16    19    22    1
    17    22    23   ar
    18    23    24   ar
    19    24    25   ar
    20    25    26   ar
    21    19    28    1
    22    28    29    1
    23    28    30    1
    24     4     5   ar
    25     5     6   ar
    26    11    12   ar
    27    12     7   ar
    28     6     1   ar
    29    26    22   ar
    30    17    18    1
    31    20    21    1
    32    26    27    1
@<TRIPOS>MOLECULE
*****
 30 32 0 0 0
SMALL
GASTEIGER

@<TRIPOS>ATOM
      1 C          63.7879   87.4750   14.9727 C.ar    1  UNL1        0.0000
      2 C          63.6181   86.9755   13.5686 C.ar    1  UNL1       -0.0002
      3 C          63.3512   85.5210   13.3171 C.ar    1  UNL1       -0.0017
      4 C          63.2540   84.5660   14.4697 C.ar    1  UNL1        0.0070
      5 C          63.4238   85.0656   15.8739 C.ar    1  UNL1       -0.0017
      6 C          63.6907   86.5200   16.1254 C.ar    1  UNL1       -0.0002
      7 C          65.2331   91.1482   14.5617 C.ar    1  UNL1        0.1219
      8 C          64.5887   91.8384   15.7272 C.ar    1  UNL1        0.0199
      9 C          63.6774   91.0741   16.6412 C.ar    1  UNL1        0.0014
     10 C          63.4105   89.6197   16.3898 C.ar    1  UNL1        0.0001
     11 C          64.0548   88.9295   15.2243 C.ar    1  UNL1        0.0013
     12 C          64.9661   89.6938   14.3103 C.ar    1  UNL1        0.0199
     13 S          66.1444   91.9125   13.6477 S.O2    1  UNL1        0.0603
     14 O          64.9555   92.4202   12.8869 O.2     1  UNL1       -0.1530
     15 O          67.3332   91.4048   14.4086 O.2     1  UNL1       -0.1530
     16 C          66.7713   92.7276   11.2618 C.3     1  UNL1        0.1102
     17 N          67.0557   92.6768   12.7337 N.3     1  UNL1       -0.1779
     18 H          67.0642   93.6413   13.0655 H       1  UNL1        0.1488
     19 C          62.9871   83.1116   14.2183 C.3     1  UNL1        0.1410
     20 O          62.5663   82.9416   15.6479 O.3     1  UNL1       -0.3771
     21 H          62.6383   83.7917   16.1094 H       1  UNL1        0.2112
     22 C          63.4079   83.2815   12.7886 C.ar    1  UNL1        0.0825
     23 C          62.4955   83.5326   11.6248 C.ar    1  UNL1        0.1157
     24 N          63.3388   83.6365   10.3886 N.ar    1  UNL1       -0.2228
     25 C          64.7724   83.4496   10.7884 C.ar    1  UNL1        0.1749
     26 N          64.8152   83.2302   12.2716 N.ar    1  UNL1       -0.3361
     27 H          65.6247   83.0791   12.8111 H       1  UNL1        0.1673
     28 C          62.7202   81.6571   13.9668 C.3     1  UNL1        0.0340
     29 C          61.3164   81.1315   14.0229 C.3     1  UNL1        0.0031
     30 C          63.8571   80.7281   13.6592 C.3     1  UNL1        0.0031
@<TRIPOS>BOND
     1    16    17    1
     2    17    13    1
     3    13    14    2
     4    13    15    2
     5    13     7    1
     6     7     8   ar
     7     8     9   ar
     8     9    10   ar
     9    10    11   ar
    10    11     1    1
    11     1     2   ar
    12     2     3   ar
    13     3     4   ar
    14     4    19    1
    15    19    20    1
    16    19    22    1
    17    22    23   ar
    18    23    24   ar
    19    24    25   ar
    20    25    26   ar
    21    19    28    1
    22    28    29    1
    23    28    30    1
    24     4     5   ar
    25     5     6   ar
    26    11    12   ar
    27    12     7   ar
    28     6     1   ar
    29    26    22   ar
    30    17    18    1
    31    20    21    1
    32    26    27    1
@<TRIPOS>MOLECULE
*****
 30 32 0 0 0
SMALL
GASTEIGER

@<TRIPOS>ATOM
      1 C          62.7519   89.4573   11.3915 C.ar    1  UNL1        0.0000
      2 C          63.3638   88.9287   12.6548 C.ar    1  UNL1       -0.0002
      3 C          64.3025   89.7871   13.4499 C.ar    1  UNL1       -0.0017
      4 C          64.6292   91.1741   12.9815 C.ar    1  UNL1        0.0070
      5 C          64.0173   91.7027   11.7181 C.ar    1  UNL1       -0.0017
      6 C          63.0786   90.8443   10.9231 C.ar    1  UNL1       -0.0002
      7 C          61.4181   86.6908    8.8780 C.ar    1  UNL1        0.1219
      8 C          59.9359   86.8821    9.0064 C.ar    1  UNL1        0.0199
      9 C          59.3924   87.9318    9.9298 C.ar    1  UNL1        0.0014
     10 C          60.3310   88.7902   10.7248 C.ar    1  UNL1        0.0001
     11 C          61.8132   88.5989   10.5965 C.ar    1  UNL1        0.0013
     12 C          62.3567   87.5492    9.6731 C.ar    1  UNL1        0.0199
     13 S          61.9617   85.6411    7.9547 S.O2    1  UNL1        0.0603
     14 O          63.2737   85.6820    8.6805 O.2     1  UNL1       -0.1530
     15 O          60.6496   85.6001    7.2289 O.2     1  UNL1       -0.1530
     16 C          61.7490   84.2197    5.7903 C.3     1  UNL1        0.1102
     17 N          62.5052   84.5913    7.0313 N.3     1  UNL1       -0.1779
     18 H          63.4256   84.9119    6.7303 H       1  UNL1        0.1488
     19 C          65.5679   92.0325   13.7765 C.3     1  UNL1        0.1410
     20 O          64.7360   91.8055   15.0039 O.3     1  UNL1       -0.3771
     21 H          63.9844   91.2332   14.7837 H       1  UNL1        0.2112
     22 C          66.3997   92.2596   12.5492 C.ar    1  UNL1        0.0825
     23 C          67.7522   91.6697   12.2791 C.ar    1  UNL1        0.1157
     24 N          68.2136   92.1619   10.9393 N.ar    1  UNL1       -0.2228
     25 C          67.1462   93.0561   10.3814 C.ar    1  UNL1        0.1749
     26 N          66.0252   93.1164   11.3763 N.ar    1  UNL1       -0.3361
     27 H          65.1903   93.6285   11.2769 H       1  UNL1        0.1673
     28 C          66.5065   92.8909   14.5715 C.3     1  UNL1        0.0340
     29 C          67.1607   92.3435   15.8053 C.3     1  UNL1        0.0031
     30 C          66.7910   94.2968   14.1326 C.3     1  UNL1        0.0031
@<TRIPOS>BOND
     1    16    17    1
     2    17    13    1
     3    13    14    2
     4    13    15    2
     5    13     7    1
     6     7     8   ar
     7     8     9   ar
     8     9    10   ar
     9    10    11   ar
    10    11     1    1
    11     1     2   ar
    12     2     3   ar
    13     3     4   ar
    14     4    19    1
    15    19    20    1
    16    19    22    1
    17    22    23   ar
    18    23    24   ar
    19    24    25   ar
    20    25    26   ar
    21    19    28    1
    22    28    29    1
    23    28    30    1
    24     4     5   ar
    25     5     6   ar
    26    11    12   ar
    27    12     7   ar
    28     6     1   ar
    29    26    22   ar
    30    17    18    1
    31    20    21    1
    32    26    27    1
@<TRIPOS>MOLECULE
*****
 30 32 0 0 0
SMALL
GASTEIGER

@<TRIPOS>ATOM
      1 C          61.8852   89.0451   10.4513 C.ar    1  UNL1        0.0000
      2 C          62.4759   88.1436   11.4945 C.ar    1  UNL1       -0.0002
      3 C          63.3591   88.7131   12.5649 C.ar    1  UNL1       -0.0017
      4 C          63.6515   90.1840   12.5921 C.ar    1  UNL1        0.0070
      5 C          63.0607   91.0856   11.5489 C.ar    1  UNL1       -0.0017
      6 C          62.1776   90.5161   10.4785 C.ar    1  UNL1       -0.0002
      7 C          59.4670   88.8171    7.3127 C.ar    1  UNL1        0.1219
      8 C          59.2357   87.3369    7.2400 C.ar    1  UNL1        0.0199
      9 C          59.8876   86.4260    8.2377 C.ar    1  UNL1        0.0014
     10 C          60.7708   86.9954    9.3081 C.ar    1  UNL1        0.0001
     11 C          61.0020   88.4757    9.3808 C.ar    1  UNL1        0.0013
     12 C          60.3501   89.3865    8.3832 C.ar    1  UNL1        0.0199
     13 S          58.8151   89.7280    6.3151 S.O2    1  UNL1        0.0603
     14 O          57.4641   89.2935    6.8011 O.2     1  UNL1       -0.1530
     15 O          60.1660   90.1625    5.8290 O.2     1  UNL1       -0.1530
     16 C          58.9005   91.8404    4.8049 C.3     1  UNL1        0.1102
     17 N          58.1632   90.6389    5.3174 N.3     1  UNL1       -0.1779
     18 H          57.9306   90.0676    4.5051 H       1  UNL1        0.1488
     19 C          64.5346   90.7535   13.6625 C.3     1  UNL1        0.1410
     20 O          65.1091   91.7231   12.6727 O.3     1  UNL1       -0.3771
     21 H          64.6945   91.5849   11.8067 H       1  UNL1        0.2112
     22 C          63.9601   89.7839   14.6523 C.ar    1  UNL1        0.0825
     23 C          64.4860   88.4107   14.9485 C.ar    1  UNL1        0.1157
     24 N          63.6097   87.7953   15.9991 N.ar    1  UNL1       -0.2228
     25 C          62.5423   88.7883   16.3522 C.ar    1  UNL1        0.1749
     26 N          62.7588   90.0173   15.5199 N.ar    1  UNL1       -0.3361
     27 H          62.2090   90.8337   15.5395 H       1  UNL1        0.1673
     28 C          65.4177   91.3230   14.7329 C.3     1  UNL1        0.0340
     29 C          64.8093   91.9597   15.9471 C.3     1  UNL1        0.0031
     30 C          66.9093   91.2558   14.5890 C.3     1  UNL1        0.0031
@<TRIPOS>BOND
     1    16    17    1
     2    17    13    1
     3    13    14    2
     4    13    15    2
     5    13     7    1
     6     7     8   ar
     7     8     9   ar
     8     9    10   ar
     9    10    11   ar
    10    11     1    1
    11     1     2   ar
    12     2     3   ar
    13     3     4   ar
    14     4    19    1
    15    19    20    1
    16    19    22    1
    17    22    23   ar
    18    23    24   ar
    19    24    25   ar
    20    25    26   ar
    21    19    28    1
    22    28    29    1
    23    28    30    1
    24     4     5   ar
    25     5     6   ar
    26    11    12   ar
    27    12     7   ar
    28     6     1   ar
    29    26    22   ar
    30    17    18    1
    31    20    21    1
    32    26    27    1
@<TRIPOS>MOLECULE
*****
 30 32 0 0 0
SMALL
GASTEIGER

@<TRIPOS>ATOM
      1 C          63.4777   89.2704   12.3326 C.ar    1  UNL1        0.0000
      2 C          64.1608   89.1164   13.6591 C.ar    1  UNL1       -0.0002
      3 C          64.9999   90.2336   14.2049 C.ar    1  UNL1       -0.0017
      4 C          65.1559   91.5048   13.4241 C.ar    1  UNL1        0.0070
      5 C          64.4728   91.6588   12.0975 C.ar    1  UNL1       -0.0017
      6 C          63.6338   90.5416   11.5518 C.ar    1  UNL1       -0.0002
      7 C          62.2429   85.6131   11.4110 C.ar    1  UNL1        0.1219
      8 C          60.9606   85.9188   10.6953 C.ar    1  UNL1        0.0199
      9 C          60.5173   87.3417   10.5254 C.ar    1  UNL1        0.0014
     10 C          61.3563   88.4589   11.0712 C.ar    1  UNL1        0.0001
     11 C          62.6386   88.1532   11.7868 C.ar    1  UNL1        0.0013
     12 C          63.0819   86.7303   11.9567 C.ar    1  UNL1        0.0199
     13 S          62.6861   84.1902   11.5809 S.O2    1  UNL1        0.0603
     14 O          63.0361   84.1253   10.1237 O.2     1  UNL1       -0.1530
     15 O          62.3362   84.2552   13.0380 O.2     1  UNL1       -0.1530
     16 C          62.3333   81.8314   12.6111 C.3     1  UNL1        0.1102
     17 N          63.1294   82.7673   11.7508 N.3     1  UNL1       -0.1779
     18 H          63.1607   82.3553   10.8182 H       1  UNL1        0.1488
     19 C          65.9950   92.6220   13.9698 C.3     1  UNL1        0.1410
     20 O          65.1820   92.6169   15.2303 O.3     1  UNL1       -0.3771
     21 H          64.4951   91.9347   15.1693 H       1  UNL1        0.2112
     22 C          66.8080   92.6271   12.7093 C.ar    1  UNL1        0.0825
     23 C          68.0079   91.7713   12.4305 C.ar    1  UNL1        0.1157
     24 N          68.5054   92.1042   11.0551 N.ar    1  UNL1       -0.2228
     25 C          67.6129   93.1658   10.4837 C.ar    1  UNL1        0.1749
     26 N          66.5638   93.4890   11.5060 N.ar    1  UNL1       -0.3361
     27 H          65.8418   94.1506   11.4051 H       1  UNL1        0.1673
     28 C          66.8340   93.7392   14.5155 C.3     1  UNL1        0.0340
     29 C          67.7019   93.5076   15.7168 C.3     1  UNL1        0.0031
     30 C          66.8052   95.0881   13.8599 C.3     1  UNL1        0.0031
@<TRIPOS>BOND
     1    16    17    1
     2    17    13    1
     3    13    14    2
     4    13    15    2
     5    13     7    1
     6     7     8   ar
     7     8     9   ar
     8     9    10   ar
     9    10    11   ar
    10    11     1    1
    11     1     2   ar
    12     2     3   ar
    13     3     4   ar
    14     4    19    1
    15    19    20    1
    16    19    22    1
    17    22    23   ar
    18    23    24   ar
    19    24    25   ar
    20    25    26   ar
    21    19    28    1
    22    28    29    1
    23    28    30    1
    24     4     5   ar
    25     5     6   ar
    26    11    12   ar
    27    12     7   ar
    28     6     1   ar
    29    26    22   ar
    30    17    18    1
    31    20    21    1
    32    26    27    1
@<TRIPOS>MOLECULE
*****
 30 32 0 0 0
SMALL
GASTEIGER

@<TRIPOS>ATOM
      1 C          63.2726   90.1661   11.2156 C.ar    1  UNL1        0.0000
      2 C          63.8953   90.6426   12.4943 C.ar    1  UNL1       -0.0002
      3 C          64.6968   91.9105   12.5113 C.ar    1  UNL1       -0.0017
      4 C          64.8755   92.7018   11.2496 C.ar    1  UNL1        0.0070
      5 C          64.2527   92.2252    9.9709 C.ar    1  UNL1       -0.0017
      6 C          63.4513   90.9574    9.9539 C.ar    1  UNL1       -0.0002
      7 C          62.2366   86.3768   11.7791 C.ar    1  UNL1        0.1219
      8 C          60.8684   86.3626   11.1646 C.ar    1  UNL1        0.0199
      9 C          60.3015   87.6162   10.5671 C.ar    1  UNL1        0.0014
     10 C          61.1029   88.8841   10.5841 C.ar    1  UNL1        0.0001
     11 C          62.4711   88.8982   11.1986 C.ar    1  UNL1        0.0013
     12 C          63.0380   87.6446   11.7961 C.ar    1  UNL1        0.0199
     13 S          62.8035   85.1231   12.3766 S.O2    1  UNL1        0.0603
     14 O          63.2011   85.8880   13.6042 O.2     1  UNL1       -0.1530
     15 O          62.4058   84.3582   11.1491 O.2     1  UNL1       -0.1530
     16 C          64.6674   83.9169   13.7260 C.3     1  UNL1        0.1102
     17 N          63.3703   83.8694   12.9741 N.3     1  UNL1       -0.1779
     18 H          62.6686   83.5077   13.6200 H       1  UNL1        0.1488
     19 C          65.6769   93.9696   11.2666 C.3     1  UNL1        0.1410
     20 O          64.7202   94.5875   10.2905 O.3     1  UNL1       -0.3771
     21 H          64.0253   93.9477   10.0697 H       1  UNL1        0.2112
     22 C          66.6337   93.3518   12.2427 C.ar    1  UNL1        0.0825
     23 C          67.6838   92.3300   11.9215 C.ar    1  UNL1        0.1157
     24 N          68.4075   91.9939   13.1917 N.ar    1  UNL1       -0.2228
     25 C          67.8046   92.8080   14.2980 C.ar    1  UNL1        0.1749
     26 N          66.7083   93.6472   13.7115 N.ar    1  UNL1       -0.3361
     27 H          66.1380   94.2807   14.2040 H       1  UNL1        0.1673
     28 C          66.4783   95.2374   11.2835 C.3     1  UNL1        0.0340
     29 C          66.3536   96.1882   12.4370 C.3     1  UNL1        0.0031
     30 C          67.4045   95.5546   10.1470 C.3     1  UNL1        0.0031
@<TRIPOS>BOND
     1    16    17    1
     2    17    13    1
     3    13    14    2
     4    13    15    2
     5    13     7    1
     6     7     8   ar
     7     8     9   ar
     8     9    10   ar
     9    10    11   ar
    10    11     1    1
    11     1     2   ar
    12     2     3   ar
    13     3     4   ar
    14     4    19    1
    15    19    20    1
    16    19    22    1
    17    22    23   ar
    18    23    24   ar
    19    24    25   ar
    20    25    26   ar
    21    19    28    1
    22    28    29    1
    23    28    30    1
    24     4     5   ar
    25     5     6   ar
    26    11    12   ar
    27    12     7   ar
    28     6     1   ar
    29    26    22   ar
    30    17    18    1
    31    20    21    1
    32    26    27    1
@<TRIPOS>MOLECULE
*****
 30 32 0 0 0
SMALL
GASTEIGER

@<TRIPOS>ATOM
      1 C          63.6307   88.9594   12.6640 C.ar    1  UNL1        0.0000
      2 C          63.6850   90.2758   11.9471 C.ar    1  UNL1       -0.0002
      3 C          64.4869   91.4080   12.5176 C.ar    1  UNL1       -0.0017
      4 C          65.2343   91.2236   13.8050 C.ar    1  UNL1        0.0070
      5 C          65.1799   89.9071   14.5219 C.ar    1  UNL1       -0.0017
      6 C          64.3781   88.7750   13.9514 C.ar    1  UNL1       -0.0002
      7 C          60.9670   86.9689   10.4976 C.ar    1  UNL1        0.1219
      8 C          61.2253   85.5631   10.9525 C.ar    1  UNL1        0.0199
      9 C          62.2854   85.2893   11.9778 C.ar    1  UNL1        0.0014
     10 C          63.0872   86.4214   12.5483 C.ar    1  UNL1        0.0001
     11 C          62.8289   87.8272   12.0935 C.ar    1  UNL1        0.0013
     12 C          61.7688   88.1010   11.0681 C.ar    1  UNL1        0.0199
     13 S          59.9070   87.2426    9.4723 S.O2    1  UNL1        0.0603
     14 O          59.4568   88.4390   10.2571 O.2     1  UNL1       -0.1530
     15 O          60.3571   86.0462    8.6875 O.2     1  UNL1       -0.1530
     16 C          59.0656   87.1184    7.0174 C.3     1  UNL1        0.1102
     17 N          58.8469   87.5164    8.4470 N.3     1  UNL1       -0.1779
     18 H          58.0032   87.0365    8.7604 H       1  UNL1        0.1488
     19 C          66.0360   92.3557   14.3755 C.3     1  UNL1        0.1410
     20 O          65.0270   92.5169   15.4736 O.3     1  UNL1       -0.3771
     21 H          64.3207   91.8615   15.3624 H       1  UNL1        0.2112
     22 C          67.0451   92.1944   13.2774 C.ar    1  UNL1        0.0825
     23 C          66.8878   92.6598   11.8601 C.ar    1  UNL1        0.1157
     24 N          68.1341   92.2924   11.1105 N.ar    1  UNL1       -0.2228
     25 C          69.0617   91.6000   12.0646 C.ar    1  UNL1        0.1749
     26 N          68.3887   91.5395   13.4038 N.ar    1  UNL1       -0.3361
     27 H          68.7630   91.1400   14.2220 H       1  UNL1        0.1673
     28 C          66.8378   93.4878   14.9460 C.3     1  UNL1        0.0340
     29 C          66.8921   94.8043   14.2292 C.3     1  UNL1        0.0031
     30 C          67.5854   93.3033   16.2333 C.3     1  UNL1        0.0031
@<TRIPOS>BOND
     1    16    17    1
     2    17    13    1
     3    13    14    2
     4    13    15    2
     5    13     7    1
     6     7     8   ar
     7     8     9   ar
     8     9    10   ar
     9    10    11   ar
    10    11     1    1
    11     1     2   ar
    12     2     3   ar
    13     3     4   ar
    14     4    19    1
    15    19    20    1
    16    19    22    1
    17    22    23   ar
    18    23    24   ar
    19    24    25   ar
    20    25    26   ar
    21    19    28    1
    22    28    29    1
    23    28    30    1
    24     4     5   ar
    25     5     6   ar
    26    11    12   ar
    27    12     7   ar
    28     6     1   ar
    29    26    22   ar
    30    17    18    1
    31    20    21    1
    32    26    27    1
@<TRIPOS>MOLECULE
*****
 30 32 0 0 0
SMALL
GASTEIGER

@<TRIPOS>ATOM
      1 C          63.3920   90.0252   12.7516 C.ar    1  UNL1        0.0000
      2 C          62.7156   90.8596   11.7047 C.ar    1  UNL1       -0.0002
      3 C          61.9934   90.1974   10.5689 C.ar    1  UNL1       -0.0017
      4 C          61.9478   88.7007   10.4801 C.ar    1  UNL1        0.0070
      5 C          62.6242   87.8663   11.5271 C.ar    1  UNL1       -0.0017
      6 C          63.3463   88.5285   12.6629 C.ar    1  UNL1       -0.0002
      7 C          66.2377   91.8490   14.8316 C.ar    1  UNL1        0.1219
      8 C          65.5584   92.0118   16.1590 C.ar    1  UNL1        0.0199
      9 C          64.1570   91.5125   16.3506 C.ar    1  UNL1        0.0014
     10 C          63.4348   90.8503   15.2149 C.ar    1  UNL1        0.0001
     11 C          64.1141   90.6874   13.8875 C.ar    1  UNL1        0.0013
     12 C          65.5155   91.1868   13.6958 C.ar    1  UNL1        0.0199
     13 S          67.6391   92.3483   14.6399 S.O2    1  UNL1        0.0603
     14 O          67.3173   92.7061   13.2192 O.2     1  UNL1       -0.1530
     15 O          67.9608   91.9905   16.0606 O.2     1  UNL1       -0.1530
     16 C          69.7245   93.6033   15.5488 C.3     1  UNL1        0.1102
     17 N          69.0405   92.8477   14.4483 N.3     1  UNL1       -0.1779
     18 H          69.6189   92.0318   14.2476 H       1  UNL1        0.1488
     19 C          61.2257   88.0385    9.3443 C.3     1  UNL1        0.1410
     20 O          60.6573   89.3642    8.9327 O.3     1  UNL1       -0.3771
     21 H          60.9750   90.0537    9.5364 H       1  UNL1        0.2112
     22 C          61.7940   86.7128    9.7559 C.ar    1  UNL1        0.0825
     23 C          61.3098   85.8600   10.8910 C.ar    1  UNL1        0.1157
     24 N          62.1630   84.6272   10.9414 N.ar    1  UNL1       -0.2228
     25 C          63.1745   84.7182    9.8374 C.ar    1  UNL1        0.1749
     26 N          62.9465   86.0071    9.1048 N.ar    1  UNL1       -0.3361
     27 H          63.4626   86.3327    8.3322 H       1  UNL1        0.1673
     28 C          60.5036   87.3763    8.2086 C.3     1  UNL1        0.0340
     29 C          59.3070   88.0386    7.5925 C.3     1  UNL1        0.0031
     30 C          60.9781   86.0515    7.6887 C.3     1  UNL1        0.0031
@<TRIPOS>BOND
     1    16    17    1
     2    17    13    1
     3    13    14    2
     4    13    15    2
     5    13     7    1
     6     7     8   ar
     7     8     9   ar
     8     9    10   ar
     9    10    11   ar
    10    11     1    1
    11     1     2   ar
    12     2     3   ar
    13     3     4   ar
    14     4    19    1
    15    19    20    1
    16    19    22    1
    17    22    23   ar
    18    23    24   ar
    19    24    25   ar
    20    25    26   ar
    21    19    28    1
    22    28    29    1
    23    28    30    1
    24     4     5   ar
    25     5     6   ar
    26    11    12   ar
    27    12     7   ar
    28     6     1   ar
    29    26    22   ar
    30    17    18    1
    31    20    21    1
    32    26    27    1
