@<TRIPOS>MOLECULE
*****
 33 36 0 0 0
SMALL
GASTEIGER

@<TRIPOS>ATOM
      1 N          63.1441   89.6351   11.7200 N.pl3   1  UNL1       -0.2736
      2 C          63.8185   90.9027   11.2861 C.3     1  UNL1        0.1082
      3 C          64.5573   91.4619   12.4657 C.3     1  UNL1        0.1549
      4 C          65.4002   92.6915   12.6312 C.2     1  UNL1        0.2922
      5 O          65.6181   93.6136   11.4683 O.2     1  UNL1       -0.2563
      6 N          66.0253   92.9991   13.9597 N.am    1  UNL1       -0.1448
      7 C          66.8683   94.2289   14.1251 C.3     1  UNL1        0.2159
      8 C          65.8074   92.0772   15.1225 C.2     1  UNL1        0.3732
      9 N          66.4325   92.3848   16.4510 N.pl3   1  UNL1       -0.2512
     10 N          64.9645   90.8475   14.9571 N.2     1  UNL1       -0.1016
     11 C          64.3394   90.5399   13.6287 C.3     1  UNL1        0.1974
     12 C          63.4660   89.4108   13.1678 C.3     1  UNL1        0.1382
     13 H          66.9857   93.1918   16.5596 H       1  UNL1        0.2412
     14 H          66.2894   91.7796   17.2142 H       1  UNL1        0.2412
     15 C          64.0341   89.5301   14.6951 C.ar    1  UNL1        0.0455
     16 C          64.4098   88.0917   14.4956 C.ar    1  UNL1        0.0332
     17 C          64.1045   87.0820   15.5620 C.ar    1  UNL1        0.1673
     18 F          64.4803   85.6435   15.3625 F       1  UNL1       -0.2018
     19 C          63.4235   87.5107   16.8278 C.ar    1  UNL1        0.1696
     20 F          63.1182   86.5009   17.8943 F       1  UNL1       -0.2017
     21 C          63.0478   88.9491   17.0273 C.ar    1  UNL1        0.0614
     22 C          63.3531   89.9588   15.9609 C.ar    1  UNL1        0.1417
     23 F          62.9774   91.3973   16.1604 F       1  UNL1       -0.2043
     24 C          61.4990   86.3714   10.1733 C.ar    1  UNL1        0.2569
     25 N          62.3465   87.2590   11.0358 N.ar    1  UNL1       -0.1768
     26 C          62.2965   88.7475   10.8575 C.ar    1  UNL1        0.2226
     27 N          61.3990   89.3485    9.8167 N.ar    1  UNL1       -0.2155
     28 C          60.5514   88.4608    8.9542 C.ar    1  UNL1        0.0942
     29 C          59.6539   89.0618    7.9134 C.3     1  UNL1        0.0548
     30 C          60.6014   86.9723    9.1325 C.ar    1  UNL1        0.2065
     31 F          59.7538   86.0847    8.2701 F       1  UNL1       -0.1980
     32 C          62.6347   84.2629   11.1805 C.3     1  UNL1        0.2543
     33 O          61.5490   84.8829   10.3517 O.3     1  UNL1       -0.4545
@<TRIPOS>BOND
     1    32    33    1
     2    33    24    1
     3    24    25   ar
     4    25    26   ar
     5    26     1    1
     6     1     2    1
     7     3     2    1
     8     3     4    1
     9     4     5    2
    10     4     6   am
    11     6     7    1
    12     6     8    1
    13     8     9    1
    14     8    10    2
    15    10    11    1
    16    11    15    1
    17    15    16   ar
    18    16    17   ar
    19    17    18    1
    20    17    19   ar
    21    19    20    1
    22    19    21   ar
    23    21    22   ar
    24    22    23    1
    25    11    12    1
    26    26    27   ar
    27    27    28   ar
    28    28    29    1
    29    28    30   ar
    30    30    31    1
    31    30    24   ar
    32    12     1    1
    33    11     3    1
    34    22    15   ar
    35     9    13    1
    36     9    14    1
@<TRIPOS>MOLECULE
*****
 33 36 0 0 0
SMALL
GASTEIGER

@<TRIPOS>ATOM
      1 N          63.1049   89.8546   11.6384 N.pl3   1  UNL1       -0.2736
      2 C          63.7973   91.1263   11.2469 C.3     1  UNL1        0.1082
      3 C          64.5808   91.6108   12.4307 C.3     1  UNL1        0.1549
      4 C          65.4569   92.8117   12.6311 C.2     1  UNL1        0.2922
      5 O          65.6651   93.7841   11.5080 O.2     1  UNL1       -0.2563
      6 N          66.1249   93.0403   13.9546 N.am    1  UNL1       -0.1448
      7 C          67.0011   94.2412   14.1550 C.3     1  UNL1        0.2159
      8 C          65.9168   92.0680   15.0776 C.2     1  UNL1        0.3732
      9 N          66.5847   92.2966   16.4011 N.pl3   1  UNL1       -0.2512
     10 N          65.0406   90.8671   14.8772 N.2     1  UNL1       -0.1016
     11 C          64.3726   90.6385   13.5538 C.3     1  UNL1        0.1974
     12 C          63.4604   89.5531   13.0641 C.3     1  UNL1        0.1382
     13 H          67.1598   93.0848   16.5327 H       1  UNL1        0.2412
     14 H          66.4481   91.6584   17.1382 H       1  UNL1        0.2412
     15 C          64.0724   89.5852   14.5787 C.ar    1  UNL1        0.0455
     16 C          64.4434   88.1557   14.3160 C.ar    1  UNL1        0.0332
     17 C          64.1432   87.1025   15.3410 C.ar    1  UNL1        0.1673
     18 F          64.5141   85.6730   15.0783 F       1  UNL1       -0.2018
     19 C          63.4720   87.4787   16.6286 C.ar    1  UNL1        0.1696
     20 F          63.1718   86.4254   17.6536 F       1  UNL1       -0.2017
     21 C          63.1010   88.9082   16.8913 C.ar    1  UNL1        0.0614
     22 C          63.4013   89.9615   15.8663 C.ar    1  UNL1        0.1417
     23 F          63.0303   91.3909   16.1290 F       1  UNL1       -0.2043
     24 C          60.3336   88.8752    8.9717 C.ar    1  UNL1        0.2569
     25 N          61.2251   89.7005    9.8515 N.ar    1  UNL1       -0.1768
     26 C          62.2133   89.0292   10.7586 C.ar    1  UNL1        0.2226
     27 N          62.3100   87.5326   10.7859 N.ar    1  UNL1       -0.2155
     28 C          61.4184   86.7073    9.9061 C.ar    1  UNL1        0.0942
     29 C          61.5151   85.2107    9.9334 C.3     1  UNL1        0.0548
     30 C          60.4303   87.3786    8.9990 C.ar    1  UNL1        0.2065
     31 F          59.5387   86.5532    8.1192 F       1  UNL1       -0.1980
     32 C          59.4397   89.3551    6.5799 C.3     1  UNL1        0.2543
     33 O          59.3454   89.5465    8.0646 O.3     1  UNL1       -0.4545
@<TRIPOS>BOND
     1    32    33    1
     2    33    24    1
     3    24    25   ar
     4    25    26   ar
     5    26     1    1
     6     1     2    1
     7     3     2    1
     8     3     4    1
     9     4     5    2
    10     4     6   am
    11     6     7    1
    12     6     8    1
    13     8     9    1
    14     8    10    2
    15    10    11    1
    16    11    15    1
    17    15    16   ar
    18    16    17   ar
    19    17    18    1
    20    17    19   ar
    21    19    20    1
    22    19    21   ar
    23    21    22   ar
    24    22    23    1
    25    11    12    1
    26    26    27   ar
    27    27    28   ar
    28    28    29    1
    29    28    30   ar
    30    30    31    1
    31    30    24   ar
    32    12     1    1
    33    11     3    1
    34    22    15   ar
    35     9    13    1
    36     9    14    1
@<TRIPOS>MOLECULE
*****
 33 36 0 0 0
SMALL
GASTEIGER

@<TRIPOS>ATOM
      1 N          62.4460   89.2197   11.6209 N.pl3   1  UNL1       -0.2736
      2 C          61.5493   89.9428   10.6602 C.3     1  UNL1        0.1082
      3 C          60.9857   88.9342    9.7036 C.3     1  UNL1        0.1549
      4 C          60.0440   89.0678    8.5437 C.2     1  UNL1        0.2922
      5 O          59.4954   90.4141    8.1742 O.2     1  UNL1       -0.2563
      6 N          59.6507   87.8550    7.7534 N.am    1  UNL1       -0.1448
      7 C          58.7089   87.9886    6.5935 C.3     1  UNL1        0.2159
      8 C          60.1992   86.5087    8.1229 C.2     1  UNL1        0.3732
      9 N          59.8060   85.2959    7.3325 N.pl3   1  UNL1       -0.2512
     10 N          61.1410   86.3751    9.2827 N.2     1  UNL1       -0.1016
     11 C          61.5342   87.5878   10.0730 C.3     1  UNL1        0.1974
     12 C          62.4368   87.7643   11.2580 C.3     1  UNL1        0.1382
     13 H          59.1879   85.3836    6.5713 H       1  UNL1        0.2412
     14 H          60.1660   84.4123    7.5750 H       1  UNL1        0.2412
     15 C          62.1603   86.3140   10.5582 C.ar    1  UNL1        0.0455
     16 C          61.9132   85.8437   11.9610 C.ar    1  UNL1        0.0332
     17 C          62.5393   84.5699   12.4461 C.ar    1  UNL1        0.1673
     18 F          62.2922   84.0995   13.8489 F       1  UNL1       -0.2018
     19 C          63.4124   83.7664   11.5285 C.ar    1  UNL1        0.1696
     20 F          64.0385   82.4925   12.0137 F       1  UNL1       -0.2017
     21 C          63.6595   84.2367   10.1257 C.ar    1  UNL1        0.0614
     22 C          63.0334   85.5105    9.6406 C.ar    1  UNL1        0.1417
     23 F          63.2805   85.9808    8.2378 F       1  UNL1       -0.2043
     24 C          63.6906   90.0765   15.2907 C.ar    1  UNL1        0.2569
     25 N          62.9199   89.4535   14.1647 N.ar    1  UNL1       -0.1768
     26 C          63.2168   89.8427   12.7469 C.ar    1  UNL1        0.2226
     27 N          64.2846   90.8550   12.4550 N.ar    1  UNL1       -0.2155
     28 C          65.0553   91.4780   13.5810 C.ar    1  UNL1        0.0942
     29 C          66.1231   92.4902   13.2892 C.3     1  UNL1        0.0548
     30 C          64.7584   91.0887   14.9989 C.ar    1  UNL1        0.2065
     31 F          65.5291   91.7117   16.1248 F       1  UNL1       -0.1980
     32 C          63.0328   88.2687   17.0370 C.3     1  UNL1        0.2543
     33 O          63.3936   89.6871   16.7085 O.3     1  UNL1       -0.4545
@<TRIPOS>BOND
     1    32    33    1
     2    33    24    1
     3    24    25   ar
     4    25    26   ar
     5    26     1    1
     6     1     2    1
     7     3     2    1
     8     3     4    1
     9     4     5    2
    10     4     6   am
    11     6     7    1
    12     6     8    1
    13     8     9    1
    14     8    10    2
    15    10    11    1
    16    11    15    1
    17    15    16   ar
    18    16    17   ar
    19    17    18    1
    20    17    19   ar
    21    19    20    1
    22    19    21   ar
    23    21    22   ar
    24    22    23    1
    25    11    12    1
    26    26    27   ar
    27    27    28   ar
    28    28    29    1
    29    28    30   ar
    30    30    31    1
    31    30    24   ar
    32    12     1    1
    33    11     3    1
    34    22    15   ar
    35     9    13    1
    36     9    14    1
@<TRIPOS>MOLECULE
*****
 33 36 0 0 0
SMALL
GASTEIGER

@<TRIPOS>ATOM
      1 N          62.4463   89.2100   11.6150 N.pl3   1  UNL1       -0.2736
      2 C          61.5502   89.9350   10.6552 C.3     1  UNL1        0.1082
      3 C          60.9872   88.9284    9.6962 C.3     1  UNL1        0.1549
      4 C          60.0462   89.0644    8.5361 C.2     1  UNL1        0.2922
      5 O          59.4979   90.4115    8.1689 O.2     1  UNL1       -0.2563
      6 N          59.6533   87.8532    7.7431 N.am    1  UNL1       -0.1448
      7 C          58.7122   87.9892    6.5828 C.3     1  UNL1        0.2159
      8 C          60.2015   86.5062    8.1102 C.2     1  UNL1        0.3732
      9 N          59.8086   85.2950    7.3172 N.pl3   1  UNL1       -0.2512
     10 N          61.1425   86.3702    9.2704 N.2     1  UNL1       -0.1016
     11 C          61.5353   87.5813   10.0634 C.3     1  UNL1        0.1974
     12 C          62.4372   87.7553   11.2493 C.3     1  UNL1        0.1382
     13 H          59.1910   85.3842    6.5557 H       1  UNL1        0.2412
     14 H          60.1684   84.4108    7.5582 H       1  UNL1        0.2412
     15 C          62.1610   86.3064   10.5464 C.ar    1  UNL1        0.0455
     16 C          61.9117   85.8325   11.9476 C.ar    1  UNL1        0.0332
     17 C          62.5374   84.5577   12.4306 C.ar    1  UNL1        0.1673
     18 F          62.2882   84.0838   13.8318 F       1  UNL1       -0.2018
     19 C          63.4123   83.7568   11.5124 C.ar    1  UNL1        0.1696
     20 F          64.0380   82.4819   11.9954 F       1  UNL1       -0.2017
     21 C          63.6615   84.2307   10.1112 C.ar    1  UNL1        0.0614
     22 C          63.0359   85.5055    9.6282 C.ar    1  UNL1        0.1417
     23 F          63.2851   85.9794    8.2270 F       1  UNL1       -0.2043
     24 C          65.0908   91.4240   13.5786 C.ar    1  UNL1        0.2569
     25 N          64.3206   90.8032   12.4510 N.ar    1  UNL1       -0.1768
     26 C          63.2165   89.8307   12.7427 C.ar    1  UNL1        0.2226
     27 N          62.8825   89.4789   14.1621 N.ar    1  UNL1       -0.2155
     28 C          63.6527   90.0997   15.2897 C.ar    1  UNL1        0.0942
     29 C          63.3187   89.7479   16.7091 C.3     1  UNL1        0.0548
     30 C          64.7568   91.0722   14.9980 C.ar    1  UNL1        0.2065
     31 F          65.5269   91.6929   16.1257 F       1  UNL1       -0.1980
     32 C          67.6230   92.0022   13.5211 C.3     1  UNL1        0.2543
     33 O          66.1949   92.3965   13.2868 O.3     1  UNL1       -0.4545
@<TRIPOS>BOND
     1    32    33    1
     2    33    24    1
     3    24    25   ar
     4    25    26   ar
     5    26     1    1
     6     1     2    1
     7     3     2    1
     8     3     4    1
     9     4     5    2
    10     4     6   am
    11     6     7    1
    12     6     8    1
    13     8     9    1
    14     8    10    2
    15    10    11    1
    16    11    15    1
    17    15    16   ar
    18    16    17   ar
    19    17    18    1
    20    17    19   ar
    21    19    20    1
    22    19    21   ar
    23    21    22   ar
    24    22    23    1
    25    11    12    1
    26    26    27   ar
    27    27    28   ar
    28    28    29    1
    29    28    30   ar
    30    30    31    1
    31    30    24   ar
    32    12     1    1
    33    11     3    1
    34    22    15   ar
    35     9    13    1
    36     9    14    1
@<TRIPOS>MOLECULE
*****
 33 36 0 0 0
SMALL
GASTEIGER

@<TRIPOS>ATOM
      1 N          62.7964   84.9167   12.2761 N.pl3   1  UNL1       -0.2736
      2 C          63.5520   85.7787   13.2436 C.3     1  UNL1        0.1082
      3 C          63.3681   87.2091   12.8312 C.3     1  UNL1        0.1549
      4 C          63.8798   88.4945   13.4109 C.2     1  UNL1        0.2922
      5 O          64.7490   88.4725   14.6332 O.2     1  UNL1       -0.2563
      6 N          63.5223   89.8019   12.7681 N.am    1  UNL1       -0.1448
      7 C          64.0341   91.0873   13.3478 C.3     1  UNL1        0.2159
      8 C          62.6532   89.8239   11.5459 C.2     1  UNL1        0.3732
      9 N          62.2957   91.1313   10.9032 N.pl3   1  UNL1       -0.2512
     10 N          62.1414   88.5385   10.9663 N.2     1  UNL1       -0.1016
     11 C          62.4989   87.2312   11.6089 C.3     1  UNL1        0.1974
     12 C          62.1456   85.8143   11.2658 C.3     1  UNL1        0.1382
     13 H          62.6315   91.9749   11.2836 H       1  UNL1        0.2412
     14 H          61.7252   91.1457   10.1010 H       1  UNL1        0.2412
     15 C          61.6251   87.0966   10.3971 C.ar    1  UNL1        0.0455
     16 C          62.1274   86.3649    9.1878 C.ar    1  UNL1        0.0332
     17 C          61.2537   86.2303    7.9760 C.ar    1  UNL1        0.1673
     18 F          61.7560   85.4986    6.7667 F       1  UNL1       -0.2018
     19 C          59.8777   86.8274    7.9735 C.ar    1  UNL1        0.1696
     20 F          59.0039   86.6929    6.7617 F       1  UNL1       -0.2017
     21 C          59.3754   87.5591    9.1828 C.ar    1  UNL1        0.0614
     22 C          60.2491   87.6937   10.3946 C.ar    1  UNL1        0.1417
     23 F          59.7468   88.4254   11.6039 F       1  UNL1       -0.2043
     24 C          63.1112   81.1137   11.1859 C.ar    1  UNL1        0.2569
     25 N          63.2003   82.6106   11.1496 N.ar    1  UNL1       -0.1768
     26 C          62.7073   83.4198   12.3124 C.ar    1  UNL1        0.2226
     27 N          62.1252   82.7320   13.5117 N.ar    1  UNL1       -0.2155
     28 C          62.0362   81.2350   13.5479 C.ar    1  UNL1        0.0942
     29 C          61.4541   80.5472   14.7472 C.3     1  UNL1        0.0548
     30 C          62.5292   80.4259   12.3851 C.ar    1  UNL1        0.2065
     31 F          62.4401   78.9290   12.4214 F       1  UNL1       -0.1980
     32 C          62.7478   79.2139    9.4513 C.3     1  UNL1        0.2543
     33 O          63.6042   80.3046   10.0230 O.3     1  UNL1       -0.4545
@<TRIPOS>BOND
     1    32    33    1
     2    33    24    1
     3    24    25   ar
     4    25    26   ar
     5    26     1    1
     6     1     2    1
     7     3     2    1
     8     3     4    1
     9     4     5    2
    10     4     6   am
    11     6     7    1
    12     6     8    1
    13     8     9    1
    14     8    10    2
    15    10    11    1
    16    11    15    1
    17    15    16   ar
    18    16    17   ar
    19    17    18    1
    20    17    19   ar
    21    19    20    1
    22    19    21   ar
    23    21    22   ar
    24    22    23    1
    25    11    12    1
    26    26    27   ar
    27    27    28   ar
    28    28    29    1
    29    28    30   ar
    30    30    31    1
    31    30    24   ar
    32    12     1    1
    33    11     3    1
    34    22    15   ar
    35     9    13    1
    36     9    14    1
@<TRIPOS>MOLECULE
*****
 33 36 0 0 0
SMALL
GASTEIGER

@<TRIPOS>ATOM
      1 N          63.6157   86.9716   13.0092 N.pl3   1  UNL1       -0.2736
      2 C          63.8622   86.0394   14.1583 C.3     1  UNL1        0.1082
      3 C          63.5114   84.6510   13.7121 C.3     1  UNL1        0.1549
      4 C          63.5540   83.3287   14.4192 C.2     1  UNL1        0.2922
      5 O          64.0173   83.2546   15.8439 O.2     1  UNL1       -0.2563
      6 N          63.1332   82.0806   13.7014 N.am    1  UNL1       -0.1448
      7 C          63.1757   80.7583   14.4085 C.3     1  UNL1        0.2159
      8 C          62.6698   82.1547   12.2768 C.2     1  UNL1        0.3732
      9 N          62.2490   80.9065   11.5590 N.pl3   1  UNL1       -0.2512
     10 N          62.6273   83.4769   11.5697 N.2     1  UNL1       -0.1016
     11 C          63.0480   84.7250   12.2874 C.3     1  UNL1        0.1974
     12 C          63.1125   86.1593   11.8530 C.3     1  UNL1        0.1382
     13 H          62.2770   80.0386   12.0230 H       1  UNL1        0.2412
     14 H          61.9449   80.9551   10.6239 H       1  UNL1        0.2412
     15 C          62.6101   84.9538   10.8711 C.ar    1  UNL1        0.0455
     16 C          61.3564   85.7279   10.5895 C.ar    1  UNL1        0.0332
     17 C          60.9185   85.9567    9.1733 C.ar    1  UNL1        0.1673
     18 F          59.6649   86.7308    8.8916 F       1  UNL1       -0.2018
     19 C          61.7341   85.4114    8.0386 C.ar    1  UNL1        0.1696
     20 F          61.2962   85.6402    6.6223 F       1  UNL1       -0.2017
     21 C          62.9877   84.6373    8.3203 C.ar    1  UNL1        0.0614
     22 C          63.4257   84.4085    9.7365 C.ar    1  UNL1        0.1417
     23 F          64.6793   83.6345   10.0181 F       1  UNL1       -0.2043
     24 C          64.6635   90.6029   14.2202 C.ar    1  UNL1        0.2569
     25 N          64.4452   89.1188   14.2140 N.ar    1  UNL1       -0.1768
     26 C          63.8341   88.4556   13.0154 C.ar    1  UNL1        0.2226
     27 N          63.4413   89.2764   11.8229 N.ar    1  UNL1       -0.2155
     28 C          63.6597   90.7605   11.8291 C.ar    1  UNL1        0.0942
     29 C          63.2670   91.5813   10.6366 C.3     1  UNL1        0.0548
     30 C          64.2708   91.4237   13.0277 C.ar    1  UNL1        0.2065
     31 F          64.4891   92.9077   13.0338 F       1  UNL1       -0.1980
     32 C          66.5803   91.9930   15.2896 C.3     1  UNL1        0.2543
     33 O          65.2746   91.2660   15.4188 O.3     1  UNL1       -0.4545
@<TRIPOS>BOND
     1    32    33    1
     2    33    24    1
     3    24    25   ar
     4    25    26   ar
     5    26     1    1
     6     1     2    1
     7     3     2    1
     8     3     4    1
     9     4     5    2
    10     4     6   am
    11     6     7    1
    12     6     8    1
    13     8     9    1
    14     8    10    2
    15    10    11    1
    16    11    15    1
    17    15    16   ar
    18    16    17   ar
    19    17    18    1
    20    17    19   ar
    21    19    20    1
    22    19    21   ar
    23    21    22   ar
    24    22    23    1
    25    11    12    1
    26    26    27   ar
    27    27    28   ar
    28    28    29    1
    29    28    30   ar
    30    30    31    1
    31    30    24   ar
    32    12     1    1
    33    11     3    1
    34    22    15   ar
    35     9    13    1
    36     9    14    1
@<TRIPOS>MOLECULE
*****
 33 36 0 0 0
SMALL
GASTEIGER

@<TRIPOS>ATOM
      1 N          62.7379   84.9581   12.3296 N.pl3   1  UNL1       -0.2736
      2 C          63.5181   85.8028   13.2927 C.3     1  UNL1        0.1082
      3 C          63.3762   87.2358   12.8728 C.3     1  UNL1        0.1549
      4 C          63.9252   88.5086   13.4458 C.2     1  UNL1        0.2922
      5 O          64.7932   88.4677   14.6686 O.2     1  UNL1       -0.2563
      6 N          63.6062   89.8225   12.7961 N.am    1  UNL1       -0.1448
      7 C          64.1552   91.0955   13.3692 C.3     1  UNL1        0.2159
      8 C          62.7383   89.8635   11.5735 C.2     1  UNL1        0.3732
      9 N          62.4193   91.1773   10.9238 N.pl3   1  UNL1       -0.2512
     10 N          62.1893   88.5906   11.0005 N.2     1  UNL1       -0.1016
     11 C          62.5082   87.2767   11.6501 C.3     1  UNL1        0.1974
     12 C          62.1137   85.8690   11.3144 C.3     1  UNL1        0.1382
     13 H          62.7796   92.0128   11.2999 H       1  UNL1        0.2412
     14 H          61.8496   91.2042   10.1213 H       1  UNL1        0.2412
     15 C          61.6312   87.1614   10.4388 C.ar    1  UNL1        0.0455
     16 C          62.1151   86.4155    9.2307 C.ar    1  UNL1        0.0332
     17 C          61.2380   86.3001    8.0193 C.ar    1  UNL1        0.1673
     18 F          61.7220   85.5542    6.8112 F       1  UNL1       -0.2018
     19 C          59.8770   86.9306    8.0161 C.ar    1  UNL1        0.1696
     20 F          58.9998   86.8153    6.8047 F       1  UNL1       -0.2017
     21 C          59.3930   87.6765    9.2242 C.ar    1  UNL1        0.0614
     22 C          60.2701   87.7919   10.4355 C.ar    1  UNL1        0.1417
     23 F          59.7862   88.5377   11.6436 F       1  UNL1       -0.2043
     24 C          61.7383   81.3167   13.5508 C.ar    1  UNL1        0.2569
     25 N          61.8712   82.8102   13.5065 N.ar    1  UNL1       -0.1768
     26 C          62.6051   83.4646   12.3738 C.ar    1  UNL1        0.2226
     27 N          63.2061   82.6257   11.2853 N.ar    1  UNL1       -0.2155
     28 C          63.0733   81.1322   11.3296 C.ar    1  UNL1        0.0942
     29 C          63.6743   80.2932   10.2411 C.3     1  UNL1        0.0548
     30 C          62.3394   80.4777   12.4623 C.ar    1  UNL1        0.2065
     31 F          62.2065   78.9842   12.5065 F       1  UNL1       -0.1980
     32 C          59.6376   80.0867   14.4587 C.3     1  UNL1        0.2543
     33 O          61.0044   80.6623   14.6835 O.3     1  UNL1       -0.4545
@<TRIPOS>BOND
     1    32    33    1
     2    33    24    1
     3    24    25   ar
     4    25    26   ar
     5    26     1    1
     6     1     2    1
     7     3     2    1
     8     3     4    1
     9     4     5    2
    10     4     6   am
    11     6     7    1
    12     6     8    1
    13     8     9    1
    14     8    10    2
    15    10    11    1
    16    11    15    1
    17    15    16   ar
    18    16    17   ar
    19    17    18    1
    20    17    19   ar
    21    19    20    1
    22    19    21   ar
    23    21    22   ar
    24    22    23    1
    25    11    12    1
    26    26    27   ar
    27    27    28   ar
    28    28    29    1
    29    28    30   ar
    30    30    31    1
    31    30    24   ar
    32    12     1    1
    33    11     3    1
    34    22    15   ar
    35     9    13    1
    36     9    14    1
@<TRIPOS>MOLECULE
*****
 33 36 0 0 0
SMALL
GASTEIGER

@<TRIPOS>ATOM
      1 N          63.5623   86.6903   13.3197 N.pl3   1  UNL1       -0.2736
      2 C          63.8869   85.6410   14.3413 C.3     1  UNL1        0.1082
      3 C          63.6198   84.2985   13.7278 C.3     1  UNL1        0.1549
      4 C          63.7592   82.9045   14.2637 C.2     1  UNL1        0.2922
      5 O          64.2489   82.6848   15.6644 O.2     1  UNL1       -0.2563
      6 N          63.4088   81.7300   13.3988 N.am    1  UNL1       -0.1448
      7 C          63.5482   80.3359   13.9347 C.3     1  UNL1        0.2159
      8 C          62.9190   81.9496   11.9982 C.2     1  UNL1        0.3732
      9 N          62.5687   80.7752   11.1333 N.pl3   1  UNL1       -0.2512
     10 N          62.7796   83.3437   11.4623 N.2     1  UNL1       -0.1016
     11 C          63.1300   84.5181   12.3271 C.3     1  UNL1        0.1974
     12 C          63.0945   85.9963   12.0749 C.3     1  UNL1        0.1382
     13 H          62.6601   79.8602   11.4850 H       1  UNL1        0.2412
     14 H          62.2472   80.9193   10.2140 H       1  UNL1        0.2412
     15 C          62.6557   84.8915   10.9540 C.ar    1  UNL1        0.0455
     16 C          61.4038   85.7009   10.7872 C.ar    1  UNL1        0.0332
     17 C          60.9295   86.0743    9.4141 C.ar    1  UNL1        0.1673
     18 F          59.6776   86.8837    9.2473 F       1  UNL1       -0.2018
     19 C          61.7070   85.6384    8.2077 C.ar    1  UNL1        0.1696
     20 F          61.2327   86.0118    6.8344 F       1  UNL1       -0.2017
     21 C          62.9589   84.8290    8.3744 C.ar    1  UNL1        0.0614
     22 C          63.4332   84.4556    9.7476 C.ar    1  UNL1        0.1417
     23 F          64.6851   83.6462    9.9143 F       1  UNL1       -0.2043
     24 C          63.8654   90.5628   12.5059 C.ar    1  UNL1        0.2569
     25 N          63.7436   89.0798   12.3161 N.ar    1  UNL1       -0.1768
     26 C          63.6841   88.1732   13.5096 C.ar    1  UNL1        0.2226
     27 N          63.7464   88.7496   14.8931 N.ar    1  UNL1       -0.2155
     28 C          63.8682   90.2326   15.0829 C.ar    1  UNL1        0.0942
     29 C          63.9304   90.8090   16.4663 C.3     1  UNL1        0.0548
     30 C          63.9277   91.1392   13.8893 C.ar    1  UNL1        0.2065
     31 F          64.0495   92.6221   14.0792 F       1  UNL1       -0.1980
     32 C          63.0462   91.2056   10.1256 C.3     1  UNL1        0.2543
     33 O          63.9249   91.4693   11.3123 O.3     1  UNL1       -0.4545
@<TRIPOS>BOND
     1    32    33    1
     2    33    24    1
     3    24    25   ar
     4    25    26   ar
     5    26     1    1
     6     1     2    1
     7     3     2    1
     8     3     4    1
     9     4     5    2
    10     4     6   am
    11     6     7    1
    12     6     8    1
    13     8     9    1
    14     8    10    2
    15    10    11    1
    16    11    15    1
    17    15    16   ar
    18    16    17   ar
    19    17    18    1
    20    17    19   ar
    21    19    20    1
    22    19    21   ar
    23    21    22   ar
    24    22    23    1
    25    11    12    1
    26    26    27   ar
    27    27    28   ar
    28    28    29    1
    29    28    30   ar
    30    30    31    1
    31    30    24   ar
    32    12     1    1
    33    11     3    1
    34    22    15   ar
    35     9    13    1
    36     9    14    1
