@<TRIPOS>MOLECULE
*****
 26 28 0 0 0
SMALL
GASTEIGER

@<TRIPOS>ATOM
      1 C          63.2315   90.4848   11.8923 C.ar    1  UNL1        0.1534
      2 C          63.9779   90.6617   13.1812 C.ar    1  UNL1        0.0351
      3 C          65.0821   91.6725   13.2757 C.ar    1  UNL1        0.0722
      4 CL         65.8286   91.8495   14.5648 Cl      1  UNL1       -0.0809
      5 C          65.4399   92.5063   12.0813 C.ar    1  UNL1        0.0577
      6 C          64.6935   92.3293   10.7923 C.ar    1  UNL1        0.0462
      7 C          63.5893   91.3186   10.6978 C.ar    1  UNL1        0.1602
      8 F          62.8428   91.1415    9.4088 F       1  UNL1       -0.2027
      9 O          63.1021   88.3792   12.1155 O.2     1  UNL1       -0.1498
     10 S          62.1272   89.4739   11.7977 S.O2    1  UNL1        0.0772
     11 O          61.1522   90.5687   11.4799 O.2     1  UNL1       -0.1498
     12 N          61.0230   88.4631   11.7032 N.pl3   1  UNL1       -0.1936
     13 H          60.5054   88.2231   12.5055 H       1  UNL1        0.1758
     14 C          60.7074   87.8181   10.3862 C.ar    1  UNL1        0.1786
     15 N          59.9735   88.4572    9.2447 N.ar    1  UNL1       -0.2214
     16 C          59.8829   87.4547    8.1326 C.ar    1  UNL1        0.1079
     17 C          60.5607   86.1960    8.5867 C.ar    1  UNL1        0.0588
     18 S          61.0703   86.4206    9.9796 S.2     1  UNL1       -0.0497
     19 N          66.5442   93.5171   12.1758 N.pl3   1  UNL1       -0.3319
     20 H          67.4099   93.2649   12.5711 H       1  UNL1        0.1468
     21 C          66.3295   94.9122   11.6682 C.3     1  UNL1        0.0898
     22 C          66.9417   95.3394   10.3672 C.3     1  UNL1        0.0510
     23 C          67.0395   96.6336    9.6154 C.3     1  UNL1        0.0716
     24 N          67.8075   95.9436    8.5272 N.3     1  UNL1       -0.2973
     25 C          67.7097   94.6493    9.2791 C.3     1  UNL1        0.0716
     26 H          68.7612   96.2856    8.4093 H       1  UNL1        0.1233
@<TRIPOS>BOND
     1     9    10    2
     2    10    11    2
     3    10    12    1
     4    12    14    1
     5    14    15   ar
     6    15    16   ar
     7    16    17   ar
     8    17    18   ar
     9    10     1    1
    10     1     2   ar
    11     2     3   ar
    12     3     4    1
    13     3     5   ar
    14     5    19    1
    15    19    21    1
    16    21    22    1
    17    22    23    1
    18    23    24    1
    19    24    25    1
    20     5     6   ar
    21     6     7   ar
    22     7     8    1
    23    18    14   ar
    24     7     1   ar
    25    25    22    1
    26    12    13    1
    27    19    20    1
    28    24    26    1
@<TRIPOS>MOLECULE
*****
 26 28 0 0 0
SMALL
GASTEIGER

@<TRIPOS>ATOM
      1 C          63.8318   86.7211   15.6112 C.ar    1  UNL1        0.1534
      2 C          64.2075   87.5791   14.4396 C.ar    1  UNL1        0.0351
      3 C          64.0720   89.0703   14.5281 C.ar    1  UNL1        0.0722
      4 CL         64.4478   89.9284   13.3565 Cl      1  UNL1       -0.0809
      5 C          63.5608   89.7035   15.7881 C.ar    1  UNL1        0.0577
      6 C          63.1850   88.8455   16.9597 C.ar    1  UNL1        0.0462
      7 C          63.3206   87.3543   16.8712 C.ar    1  UNL1        0.1602
      8 F          62.9448   86.4962   18.0428 F       1  UNL1       -0.2027
      9 O          65.4107   85.3835   15.1445 O.2     1  UNL1       -0.1498
     10 S          63.9673   85.2298   15.5228 S.O2    1  UNL1        0.0772
     11 O          62.5240   85.0762   15.9010 O.2     1  UNL1       -0.1498
     12 N          64.1029   83.7386   15.4343 N.pl3   1  UNL1       -0.1936
     13 H          64.6554   83.2548   16.0900 H       1  UNL1        0.1758
     14 C          63.3966   82.9845   14.3468 C.ar    1  UNL1        0.1786
     15 N          62.4939   81.8017   14.5371 N.ar    1  UNL1       -0.2214
     16 C          62.0085   81.3670   13.1860 C.ar    1  UNL1        0.1079
     17 C          62.6113   82.2811   12.1607 C.ar    1  UNL1        0.0588
     18 S          63.4692   83.2808   12.8782 S.2     1  UNL1       -0.0497
     19 N          63.4253   91.1948   15.8766 N.pl3   1  UNL1       -0.3319
     20 H          62.6431   91.6424   15.4801 H       1  UNL1        0.1468
     21 C          64.4814   92.0041   16.5691 C.3     1  UNL1        0.0898
     22 C          65.7110   92.4288   15.8222 C.3     1  UNL1        0.0510
     23 C          66.0276   92.7378   14.3891 C.3     1  UNL1        0.0716
     24 N          67.4499   93.0293   14.7661 N.3     1  UNL1       -0.2973
     25 C          67.1332   92.7203   16.1993 C.3     1  UNL1        0.0716
     26 H          67.7349   93.9947   14.6014 H       1  UNL1        0.1233
@<TRIPOS>BOND
     1     9    10    2
     2    10    11    2
     3    10    12    1
     4    12    14    1
     5    14    15   ar
     6    15    16   ar
     7    16    17   ar
     8    17    18   ar
     9    10     1    1
    10     1     2   ar
    11     2     3   ar
    12     3     4    1
    13     3     5   ar
    14     5    19    1
    15    19    21    1
    16    21    22    1
    17    22    23    1
    18    23    24    1
    19    24    25    1
    20     5     6   ar
    21     6     7   ar
    22     7     8    1
    23    18    14   ar
    24     7     1   ar
    25    25    22    1
    26    12    13    1
    27    19    20    1
    28    24    26    1
@<TRIPOS>MOLECULE
*****
 26 28 0 0 0
SMALL
GASTEIGER

@<TRIPOS>ATOM
      1 C          64.6739   91.4968   11.9379 C.ar    1  UNL1        0.1534
      2 C          63.7468   91.3491   10.7681 C.ar    1  UNL1        0.0351
      3 C          62.7707   90.2110   10.7239 C.ar    1  UNL1        0.0722
      4 CL         61.8435   90.0632    9.5540 Cl      1  UNL1       -0.0809
      5 C          62.7217   89.2208   11.8495 C.ar    1  UNL1        0.0577
      6 C          63.6488   89.3686   13.0193 C.ar    1  UNL1        0.0462
      7 C          64.6249   90.5066   13.0635 C.ar    1  UNL1        0.1602
      8 F          65.5521   90.6544   14.2334 F       1  UNL1       -0.2027
      9 O          66.1183   92.2870   10.6003 O.2     1  UNL1       -0.1498
     10 S          65.6501   92.6349   11.9822 S.O2    1  UNL1        0.0772
     11 O          65.1819   92.9829   13.3641 O.2     1  UNL1       -0.1498
     12 N          66.6263   93.7729   12.0264 N.pl3   1  UNL1       -0.1936
     13 H          67.2307   93.8734   12.7970 H       1  UNL1        0.1758
     14 C          66.6817   94.7579   10.8964 C.ar    1  UNL1        0.1786
     15 N          67.7382   94.8219    9.8335 N.ar    1  UNL1       -0.2214
     16 C          67.3997   95.9554    8.9112 C.ar    1  UNL1        0.1079
     17 C          66.1340   96.5919    9.4040 C.ar    1  UNL1        0.0588
     18 S          65.6902   95.8518   10.6310 S.2     1  UNL1       -0.0497
     19 N          61.7455   88.0827   11.8052 N.pl3   1  UNL1       -0.3319
     20 H          60.8551   88.1818   12.2134 H       1  UNL1        0.1468
     21 C          62.1259   86.7938   11.1390 C.3     1  UNL1        0.0898
     22 C          61.6020   86.4737    9.7703 C.3     1  UNL1        0.0510
     23 C          60.2952   86.6726    9.0616 C.3     1  UNL1        0.0716
     24 N          60.8613   86.0211    7.8347 N.3     1  UNL1       -0.2973
     25 C          62.1682   85.8223    8.5435 C.3     1  UNL1        0.0716
     26 H          60.9168   86.6375    7.0239 H       1  UNL1        0.1233
@<TRIPOS>BOND
     1     9    10    2
     2    10    11    2
     3    10    12    1
     4    12    14    1
     5    14    15   ar
     6    15    16   ar
     7    16    17   ar
     8    17    18   ar
     9    10     1    1
    10     1     2   ar
    11     2     3   ar
    12     3     4    1
    13     3     5   ar
    14     5    19    1
    15    19    21    1
    16    21    22    1
    17    22    23    1
    18    23    24    1
    19    24    25    1
    20     5     6   ar
    21     6     7   ar
    22     7     8    1
    23    18    14   ar
    24     7     1   ar
    25    25    22    1
    26    12    13    1
    27    19    20    1
    28    24    26    1
@<TRIPOS>MOLECULE
*****
 26 28 0 0 0
SMALL
GASTEIGER

@<TRIPOS>ATOM
      1 C          63.8300   90.8195   12.0717 C.ar    1  UNL1        0.1534
      2 C          62.8254   90.9392   10.9642 C.ar    1  UNL1        0.0351
      3 C          61.9057   89.7943   10.6589 C.ar    1  UNL1        0.0722
      4 CL         60.9011   89.9139    9.5514 Cl      1  UNL1       -0.0809
      5 C          61.9906   88.5296   11.4611 C.ar    1  UNL1        0.0577
      6 C          62.9951   88.4099   12.5686 C.ar    1  UNL1        0.0462
      7 C          63.9148   89.5549   12.8738 C.ar    1  UNL1        0.1602
      8 F          64.9194   89.4352   13.9814 F       1  UNL1       -0.2027
      9 O          64.3022   91.9421   13.8085 O.2     1  UNL1       -0.1498
     10 S          64.7497   91.9645   12.3770 S.O2    1  UNL1        0.0772
     11 O          65.1972   91.9868   10.9455 O.2     1  UNL1       -0.1498
     12 N          65.6694   93.1094   12.6824 N.pl3   1  UNL1       -0.1936
     13 H          65.4973   93.9967   12.2920 H       1  UNL1        0.1758
     14 C          66.8514   92.9025   13.5825 C.ar    1  UNL1        0.1786
     15 N          68.0556   92.0618   13.2773 N.ar    1  UNL1       -0.2214
     16 C          68.9851   92.1397   14.4520 C.ar    1  UNL1        0.1079
     17 C          68.3553   93.0285   15.4833 C.ar    1  UNL1        0.0588
     18 S          67.0365   93.4999   14.9459 S.2     1  UNL1       -0.0497
     19 N          61.0708   87.3846   11.1558 N.pl3   1  UNL1       -0.3319
     20 H          60.2832   87.2211   11.7233 H       1  UNL1        0.1468
     21 C          61.3511   86.4889    9.9857 C.3     1  UNL1        0.0898
     22 C          60.3811   86.4215    8.8434 C.3     1  UNL1        0.0510
     23 C          60.3314   85.6880    7.5361 C.3     1  UNL1        0.0716
     24 N          59.0093   86.3262    7.2281 N.3     1  UNL1       -0.2973
     25 C          59.0591   87.0598    8.5356 C.3     1  UNL1        0.0716
     26 H          58.2361   85.6656    7.1504 H       1  UNL1        0.1233
@<TRIPOS>BOND
     1     9    10    2
     2    10    11    2
     3    10    12    1
     4    12    14    1
     5    14    15   ar
     6    15    16   ar
     7    16    17   ar
     8    17    18   ar
     9    10     1    1
    10     1     2   ar
    11     2     3   ar
    12     3     4    1
    13     3     5   ar
    14     5    19    1
    15    19    21    1
    16    21    22    1
    17    22    23    1
    18    23    24    1
    19    24    25    1
    20     5     6   ar
    21     6     7   ar
    22     7     8    1
    23    18    14   ar
    24     7     1   ar
    25    25    22    1
    26    12    13    1
    27    19    20    1
    28    24    26    1
@<TRIPOS>MOLECULE
*****
 26 28 0 0 0
SMALL
GASTEIGER

@<TRIPOS>ATOM
      1 C          64.5785   91.5074   11.9572 C.ar    1  UNL1        0.1534
      2 C          63.6280   91.4090   10.8010 C.ar    1  UNL1        0.0351
      3 C          62.6286   90.2918   10.7448 C.ar    1  UNL1        0.0722
      4 CL         61.6780   90.1933    9.5887 Cl      1  UNL1       -0.0809
      5 C          62.5798   89.2731   11.8448 C.ar    1  UNL1        0.0577
      6 C          63.5304   89.3716   13.0009 C.ar    1  UNL1        0.0462
      7 C          64.5297   90.4888   13.0571 C.ar    1  UNL1        0.1602
      8 F          65.4804   90.5873   14.2133 F       1  UNL1       -0.2027
      9 O          65.1387   92.9472   13.4108 O.2     1  UNL1       -0.1498
     10 S          65.5779   92.6247   12.0134 S.O2    1  UNL1        0.0772
     11 O          66.0172   92.3021   10.6159 O.2     1  UNL1       -0.1498
     12 N          66.5773   93.7418   12.0696 N.pl3   1  UNL1       -0.1936
     13 H          67.1614   93.8406   12.8559 H       1  UNL1        0.1758
     14 C          66.6867   94.7085   10.9278 C.ar    1  UNL1        0.1786
     15 N          67.7295   94.6854    9.8499 N.ar    1  UNL1       -0.2214
     16 C          67.4597   95.8306    8.9194 C.ar    1  UNL1        0.1079
     17 C          66.2502   96.5615    9.4223 C.ar    1  UNL1        0.0588
     18 S          65.7724   95.8680   10.6637 S.2     1  UNL1       -0.0497
     19 N          61.5804   88.1559   11.7886 N.pl3   1  UNL1       -0.3319
     20 H          60.7219   88.2391   12.2633 H       1  UNL1        0.1468
     21 C          61.8890   86.9121   11.0091 C.3     1  UNL1        0.0898
     22 C          62.5291   85.7392   11.6909 C.3     1  UNL1        0.0510
     23 C          62.6669   84.2780   11.3814 C.3     1  UNL1        0.0716
     24 N          63.4343   84.0806   12.6551 N.3     1  UNL1       -0.2973
     25 C          63.2965   85.5418   12.9645 C.3     1  UNL1        0.0716
     26 H          64.3971   83.7730   12.5177 H       1  UNL1        0.1233
@<TRIPOS>BOND
     1     9    10    2
     2    10    11    2
     3    10    12    1
     4    12    14    1
     5    14    15   ar
     6    15    16   ar
     7    16    17   ar
     8    17    18   ar
     9    10     1    1
    10     1     2   ar
    11     2     3   ar
    12     3     4    1
    13     3     5   ar
    14     5    19    1
    15    19    21    1
    16    21    22    1
    17    22    23    1
    18    23    24    1
    19    24    25    1
    20     5     6   ar
    21     6     7   ar
    22     7     8    1
    23    18    14   ar
    24     7     1   ar
    25    25    22    1
    26    12    13    1
    27    19    20    1
    28    24    26    1
@<TRIPOS>MOLECULE
*****
 26 28 0 0 0
SMALL
GASTEIGER

@<TRIPOS>ATOM
      1 C          63.5975   85.9696   13.6904 C.ar    1  UNL1        0.1534
      2 C          62.9460   86.2438   12.3674 C.ar    1  UNL1        0.0351
      3 C          62.8828   87.6461   11.8388 C.ar    1  UNL1        0.0722
      4 CL         62.2314   87.9203   10.5157 Cl      1  UNL1       -0.0809
      5 C          63.4710   88.7743   12.6333 C.ar    1  UNL1        0.0577
      6 C          64.1224   88.5002   13.9563 C.ar    1  UNL1        0.0462
      7 C          64.1857   87.0978   14.4849 C.ar    1  UNL1        0.1602
      8 F          64.8371   86.8236   15.8080 F       1  UNL1       -0.2027
      9 O          65.1249   84.5123   13.8979 O.2     1  UNL1       -0.1498
     10 S          63.6607   84.5672   14.2190 S.O2    1  UNL1        0.0772
     11 O          62.1966   84.6222   14.5402 O.2     1  UNL1       -0.1498
     12 N          63.7240   83.1649   14.7476 N.pl3   1  UNL1       -0.1936
     13 H          64.0704   82.9955   15.6535 H       1  UNL1        0.1758
     14 C          63.2595   82.0207   13.8961 C.ar    1  UNL1        0.1786
     15 N          62.5695   80.7816   14.3843 N.ar    1  UNL1       -0.2214
     16 C          62.2871   79.9098   13.1967 C.ar    1  UNL1        0.1079
     17 C          62.8027   80.6102   11.9745 C.ar    1  UNL1        0.0588
     18 S          63.4037   81.9148   12.4067 S.2     1  UNL1       -0.0497
     19 N          63.4078   90.1767   12.1047 N.pl3   1  UNL1       -0.3319
     20 H          63.0105   90.3523   11.2212 H       1  UNL1        0.1468
     21 C          63.9498   91.3115   12.9222 C.3     1  UNL1        0.0898
     22 C          65.1094   92.1156   12.4133 C.3     1  UNL1        0.0510
     23 C          66.3566   92.6821   13.0241 C.3     1  UNL1        0.0716
     24 N          66.7492   93.2527   11.6936 N.3     1  UNL1       -0.2973
     25 C          65.5019   92.6861   11.0827 C.3     1  UNL1        0.0716
     26 H          67.6125   92.8653   11.3127 H       1  UNL1        0.1233
@<TRIPOS>BOND
     1     9    10    2
     2    10    11    2
     3    10    12    1
     4    12    14    1
     5    14    15   ar
     6    15    16   ar
     7    16    17   ar
     8    17    18   ar
     9    10     1    1
    10     1     2   ar
    11     2     3   ar
    12     3     4    1
    13     3     5   ar
    14     5    19    1
    15    19    21    1
    16    21    22    1
    17    22    23    1
    18    23    24    1
    19    24    25    1
    20     5     6   ar
    21     6     7   ar
    22     7     8    1
    23    18    14   ar
    24     7     1   ar
    25    25    22    1
    26    12    13    1
    27    19    20    1
    28    24    26    1
@<TRIPOS>MOLECULE
*****
 26 28 0 0 0
SMALL
GASTEIGER

@<TRIPOS>ATOM
      1 C          62.8939   88.4774   12.1549 C.ar    1  UNL1        0.1534
      2 C          62.0199   88.0771   11.0034 C.ar    1  UNL1        0.0351
      3 C          61.8007   86.6250   10.6977 C.ar    1  UNL1        0.0722
      4 CL         60.9267   86.2246    9.5462 Cl      1  UNL1       -0.0809
      5 C          62.4555   85.5733   11.5434 C.ar    1  UNL1        0.0577
      6 C          63.3294   85.9737   12.6948 C.ar    1  UNL1        0.0462
      7 C          63.5487   87.4257   13.0006 C.ar    1  UNL1        0.1602
      8 F          64.4227   87.8261   14.1521 F       1  UNL1       -0.2027
      9 O          63.5416   90.1634   11.0423 O.2     1  UNL1       -0.1498
     10 S          63.1132   89.9295   12.4606 S.O2    1  UNL1        0.0772
     11 O          62.6847   89.6956   13.8789 O.2     1  UNL1       -0.1498
     12 N          63.3324   91.3815   12.7663 N.pl3   1  UNL1       -0.1936
     13 H          62.5612   91.9756   12.9128 H       1  UNL1        0.1758
     14 C          64.7268   91.9284   12.8489 C.ar    1  UNL1        0.1786
     15 N          65.3646   92.8686   11.8696 N.ar    1  UNL1       -0.2214
     16 C          66.7601   93.1523   12.3408 C.ar    1  UNL1        0.1079
     17 C          66.9848   92.3873   13.6114 C.ar    1  UNL1        0.0588
     18 S          65.7281   91.6309   13.9255 S.2     1  UNL1       -0.0497
     19 N          62.2362   84.1212   11.2376 N.pl3   1  UNL1       -0.3319
     20 H          61.4886   83.8476   10.6585 H       1  UNL1        0.1468
     21 C          63.1561   83.0862   11.8142 C.3     1  UNL1        0.0898
     22 C          62.7227   82.2736   12.9983 C.3     1  UNL1        0.0510
     23 C          62.3256   82.5856   14.4106 C.3     1  UNL1        0.0716
     24 N          62.1097   81.1245   14.6727 N.3     1  UNL1       -0.2973
     25 C          62.5069   80.8125   13.2603 C.3     1  UNL1        0.0716
     26 H          61.1455   80.8798   14.8979 H       1  UNL1        0.1233
@<TRIPOS>BOND
     1     9    10    2
     2    10    11    2
     3    10    12    1
     4    12    14    1
     5    14    15   ar
     6    15    16   ar
     7    16    17   ar
     8    17    18   ar
     9    10     1    1
    10     1     2   ar
    11     2     3   ar
    12     3     4    1
    13     3     5   ar
    14     5    19    1
    15    19    21    1
    16    21    22    1
    17    22    23    1
    18    23    24    1
    19    24    25    1
    20     5     6   ar
    21     6     7   ar
    22     7     8    1
    23    18    14   ar
    24     7     1   ar
    25    25    22    1
    26    12    13    1
    27    19    20    1
    28    24    26    1
@<TRIPOS>MOLECULE
*****
 26 28 0 0 0
SMALL
GASTEIGER

@<TRIPOS>ATOM
      1 C          65.5757   92.3569   12.7990 C.ar    1  UNL1        0.1534
      2 C          64.3405   91.8483   12.1167 C.ar    1  UNL1        0.0351
      3 C          63.6640   90.6069   12.6178 C.ar    1  UNL1        0.0722
      4 CL         62.4287   90.0983   11.9355 Cl      1  UNL1       -0.0809
      5 C          64.2228   89.8740   13.8013 C.ar    1  UNL1        0.0577
      6 C          65.4581   90.3825   14.4836 C.ar    1  UNL1        0.0462
      7 C          66.1345   91.6239   13.9824 C.ar    1  UNL1        0.1602
      8 F          67.3698   92.1325   14.6648 F       1  UNL1       -0.2027
      9 O          65.9756   94.2773   13.6065 O.2     1  UNL1       -0.1498
     10 S          66.2522   93.5984   12.2978 S.O2    1  UNL1        0.0772
     11 O          66.5288   92.9195   10.9892 O.2     1  UNL1       -0.1498
     12 N          66.9287   94.8398   11.7968 N.pl3   1  UNL1       -0.1936
     13 H          67.6735   95.2341   12.3057 H       1  UNL1        0.1758
     14 C          66.4702   95.4806   10.5203 C.ar    1  UNL1        0.1786
     15 N          65.1652   96.1891   10.3085 N.ar    1  UNL1       -0.2214
     16 C          65.1248   96.6718    8.8889 C.ar    1  UNL1        0.1079
     17 C          66.4049   96.2616    8.2232 C.ar    1  UNL1        0.0588
     18 S          67.2365   95.5253    9.2316 S.2     1  UNL1       -0.0497
     19 N          63.5463   88.6325   14.3024 N.pl3   1  UNL1       -0.3319
     20 H          62.5646   88.5628   14.2779 H       1  UNL1        0.1468
     21 C          64.3656   87.4972   14.8409 C.3     1  UNL1        0.0898
     22 C          64.2274   86.1258   14.2491 C.3     1  UNL1        0.0510
     23 C          64.8164   84.7785   14.5453 C.3     1  UNL1        0.0716
     24 N          64.0319   84.1864   13.4122 N.3     1  UNL1       -0.2973
     25 C          63.4429   85.5337   13.1159 C.3     1  UNL1        0.0716
     26 H          63.3476   83.4869   13.7001 H       1  UNL1        0.1233
@<TRIPOS>BOND
     1     9    10    2
     2    10    11    2
     3    10    12    1
     4    12    14    1
     5    14    15   ar
     6    15    16   ar
     7    16    17   ar
     8    17    18   ar
     9    10     1    1
    10     1     2   ar
    11     2     3   ar
    12     3     4    1
    13     3     5   ar
    14     5    19    1
    15    19    21    1
    16    21    22    1
    17    22    23    1
    18    23    24    1
    19    24    25    1
    20     5     6   ar
    21     6     7   ar
    22     7     8    1
    23    18    14   ar
    24     7     1   ar
    25    25    22    1
    26    12    13    1
    27    19    20    1
    28    24    26    1
@<TRIPOS>MOLECULE
*****
 26 28 0 0 0
SMALL
GASTEIGER

@<TRIPOS>ATOM
      1 C          63.7995   88.1479   15.0421 C.ar    1  UNL1        0.1534
      2 C          63.9857   87.2306   13.8701 C.ar    1  UNL1        0.0351
      3 C          63.8651   85.7466   14.0526 C.ar    1  UNL1        0.0722
      4 CL         64.0514   84.8292   12.8805 Cl      1  UNL1       -0.0809
      5 C          63.5582   85.1801   15.4071 C.ar    1  UNL1        0.0577
      6 C          63.3720   86.0974   16.5792 C.ar    1  UNL1        0.0462
      7 C          63.4926   87.5813   16.3967 C.ar    1  UNL1        0.1602
      8 F          63.3064   88.4988   17.5688 F       1  UNL1       -0.2027
      9 O          62.4298   89.7658   14.9639 O.2     1  UNL1       -0.1498
     10 S          63.9201   89.6319   14.8597 S.O2    1  UNL1        0.0772
     11 O          65.4105   89.4980   14.7554 O.2     1  UNL1       -0.1498
     12 N          64.0407   91.1159   14.6772 N.pl3   1  UNL1       -0.1936
     13 H          63.8227   91.7226   15.4212 H       1  UNL1        0.1758
     14 C          64.4934   91.6754   13.3611 C.ar    1  UNL1        0.1786
     15 N          65.5560   92.7157   13.1640 N.ar    1  UNL1       -0.2214
     16 C          65.6823   92.9761   11.6922 C.ar    1  UNL1        0.1079
     17 C          64.6978   92.0967   10.9796 C.ar    1  UNL1        0.0588
     18 S          63.9630   91.2928   12.0112 S.2     1  UNL1       -0.0497
     19 N          63.4376   83.6960   15.5896 N.pl3   1  UNL1       -0.3319
     20 H          64.1708   83.1905   16.0092 H       1  UNL1        0.1468
     21 C          62.1999   82.9824   15.1327 C.3     1  UNL1        0.0898
     22 C          62.3118   81.7916   14.2272 C.3     1  UNL1        0.0510
     23 C          63.3831   81.2310   13.3397 C.3     1  UNL1        0.0716
     24 N          62.4699   80.1077   12.9468 N.3     1  UNL1       -0.2973
     25 C          61.3985   80.6684   13.8344 C.3     1  UNL1        0.0716
     26 H          62.8013   79.1845   13.2263 H       1  UNL1        0.1233
@<TRIPOS>BOND
     1     9    10    2
     2    10    11    2
     3    10    12    1
     4    12    14    1
     5    14    15   ar
     6    15    16   ar
     7    16    17   ar
     8    17    18   ar
     9    10     1    1
    10     1     2   ar
    11     2     3   ar
    12     3     4    1
    13     3     5   ar
    14     5    19    1
    15    19    21    1
    16    21    22    1
    17    22    23    1
    18    23    24    1
    19    24    25    1
    20     5     6   ar
    21     6     7   ar
    22     7     8    1
    23    18    14   ar
    24     7     1   ar
    25    25    22    1
    26    12    13    1
    27    19    20    1
    28    24    26    1
