@<TRIPOS>MOLECULE
*****
 30 32 0 0 0
SMALL
GASTEIGER

@<TRIPOS>ATOM
      1 C          64.3902   90.2210   13.3447 C.ar    1  UNL1        0.1085
      2 C          63.3576   90.1154   12.2618 C.ar    1  UNL1        0.0211
      3 C          63.2789   91.1673   11.1954 C.ar    1  UNL1        0.0202
      4 C          64.2329   92.3248   11.2117 C.ar    1  UNL1        0.0787
      5 N          65.2655   92.4304   12.2946 N.ar    1  UNL1       -0.2888
      6 C          65.3441   91.3784   13.3611 C.ar    1  UNL1        0.2747
      7 O          66.3767   91.4840   14.4439 O.2     1  UNL1       -0.2656
      8 N          64.1265   86.7097   15.1752 N.am    1  UNL1       -0.2680
      9 C          64.0478   87.7615   14.1088 C.2     1  UNL1        0.3083
     10 O          63.5480   87.4058   12.7399 O.2     1  UNL1       -0.2521
     11 N          64.4689   89.1691   14.4111 N.am    1  UNL1       -0.2642
     12 H          64.4545   86.9431   16.0736 H       1  UNL1        0.1564
     13 H          64.7969   89.4026   15.3095 H       1  UNL1        0.1566
     14 C          63.9658   83.1262   13.4772 C.ar    1  UNL1        0.1400
     15 C          62.8632   82.4870   14.2681 C.ar    1  UNL1        0.0370
     16 C          62.1817   83.2552   15.3614 C.ar    1  UNL1        0.0044
     17 C          62.6027   84.6628   15.6638 C.ar    1  UNL1        0.0149
     18 C          63.7053   85.3020   14.8729 C.ar    1  UNL1        0.0546
     19 C          64.3869   84.5338   13.7796 C.ar    1  UNL1        0.0516
     20 C          64.2869   82.6136   10.9505 C.3     1  UNL1        0.2525
     21 O          64.6473   82.3579   12.3839 O.3     1  UNL1       -0.4714
     22 C          66.2194   93.5878   12.3110 C.3     1  UNL1        0.1389
     23 C          66.6805   94.1980   11.0206 C.ar    1  UNL1        0.0385
     24 C          67.3015   93.3349    9.9626 C.ar    1  UNL1        0.1388
     25 F          67.4615   91.8617   10.1949 F       1  UNL1       -0.2044
     26 C          67.7626   93.9452    8.6722 C.ar    1  UNL1        0.0294
     27 C          67.6027   95.4184    8.4399 C.ar    1  UNL1        0.0032
     28 C          66.9816   96.2814    9.4979 C.ar    1  UNL1        0.0113
     29 C          66.5205   95.6713   10.7883 C.ar    1  UNL1        0.0577
     30 CL         65.8995   96.5343   11.8463 Cl      1  UNL1       -0.0824
@<TRIPOS>BOND
     1    20    21    1
     2    21    14    1
     3    14    15   ar
     4    15    16   ar
     5    16    17   ar
     6    17    18   ar
     7    18     8    1
     8     8     9   am
     9     9    10    2
    10     9    11   am
    11    11     1    1
    12     1     2   ar
    13     2     3   ar
    14     3     4   ar
    15     4     5   ar
    16     5    22    1
    17    22    23    1
    18    23    24   ar
    19    24    25    1
    20    24    26   ar
    21    26    27   ar
    22    27    28   ar
    23    28    29   ar
    24    29    30    1
    25     5     6   ar
    26     6     7    2
    27    18    19   ar
    28    19    14   ar
    29     6     1   ar
    30    29    23   ar
    31     8    12    1
    32    11    13    1
@<TRIPOS>MOLECULE
*****
 30 32 0 0 0
SMALL
GASTEIGER

@<TRIPOS>ATOM
      1 C          64.3612   90.1800   13.3657 C.ar    1  UNL1        0.1085
      2 C          63.2938   90.1492   12.3123 C.ar    1  UNL1        0.0211
      3 C          63.2462   91.2183   11.2613 C.ar    1  UNL1        0.0202
      4 C          64.2661   92.3183   11.2637 C.ar    1  UNL1        0.0787
      5 N          65.3336   92.3491   12.3171 N.ar    1  UNL1       -0.2888
      6 C          65.3811   91.2799   13.3681 C.ar    1  UNL1        0.2747
      7 O          66.4485   91.3106   14.4215 O.2     1  UNL1       -0.2656
      8 N          64.0649   86.6349   15.1247 N.am    1  UNL1       -0.2680
      9 C          64.0173   87.7040   14.0737 C.2     1  UNL1        0.3083
     10 O          63.5784   87.3663   12.6797 O.2     1  UNL1       -0.2521
     11 N          64.4088   89.1109   14.4167 N.am    1  UNL1       -0.2642
     12 H          64.3530   86.8565   16.0397 H       1  UNL1        0.1564
     13 H          64.6969   89.3325   15.3317 H       1  UNL1        0.1566
     14 C          63.9576   83.1103   13.3036 C.ar    1  UNL1        0.1400
     15 C          62.8907   82.4144   14.0957 C.ar    1  UNL1        0.0370
     16 C          62.2153   83.1252   15.2308 C.ar    1  UNL1        0.0044
     17 C          62.6067   84.5320   15.5738 C.ar    1  UNL1        0.0149
     18 C          63.6735   85.2280   14.7817 C.ar    1  UNL1        0.0546
     19 C          64.3489   84.5171   13.6466 C.ar    1  UNL1        0.0516
     20 C          64.1986   82.6589   10.7565 C.3     1  UNL1        0.2525
     21 O          64.6330   82.3995   12.1685 O.3     1  UNL1       -0.4714
     22 C          66.3534   93.4490   12.3195 C.3     1  UNL1        0.1389
     23 C          66.7250   94.1300   11.0357 C.ar    1  UNL1        0.0385
     24 C          66.3818   95.5751   10.8266 C.ar    1  UNL1        0.1388
     25 F          65.6671   96.3393   11.9014 F       1  UNL1       -0.2044
     26 C          66.7534   96.2561    9.5428 C.ar    1  UNL1        0.0294
     27 C          67.4682   95.4920    8.4680 C.ar    1  UNL1        0.0032
     28 C          67.8114   94.0468    8.6771 C.ar    1  UNL1        0.0113
     29 C          67.4398   93.3658    9.9608 C.ar    1  UNL1        0.0577
     30 CL         67.7830   91.9206   10.1699 Cl      1  UNL1       -0.0824
@<TRIPOS>BOND
     1    20    21    1
     2    21    14    1
     3    14    15   ar
     4    15    16   ar
     5    16    17   ar
     6    17    18   ar
     7    18     8    1
     8     8     9   am
     9     9    10    2
    10     9    11   am
    11    11     1    1
    12     1     2   ar
    13     2     3   ar
    14     3     4   ar
    15     4     5   ar
    16     5    22    1
    17    22    23    1
    18    23    24   ar
    19    24    25    1
    20    24    26   ar
    21    26    27   ar
    22    27    28   ar
    23    28    29   ar
    24    29    30    1
    25     5     6   ar
    26     6     7    2
    27    18    19   ar
    28    19    14   ar
    29     6     1   ar
    30    29    23   ar
    31     8    12    1
    32    11    13    1
@<TRIPOS>MOLECULE
*****
 30 32 0 0 0
SMALL
GASTEIGER

@<TRIPOS>ATOM
      1 C          62.1308   90.1520   11.8078 C.ar    1  UNL1        0.1085
      2 C          60.9579   90.8879   11.2309 C.ar    1  UNL1        0.0211
      3 C          59.7812   90.1245   10.6993 C.ar    1  UNL1        0.0202
      4 C          59.7775   88.6251   10.7445 C.ar    1  UNL1        0.0787
      5 N          60.9504   87.8892   11.3213 N.ar    1  UNL1       -0.2888
      6 C          62.1271   88.6527   11.8530 C.ar    1  UNL1        0.2747
      7 O          63.3000   87.9169   12.4298 O.2     1  UNL1       -0.2656
      8 N          65.4054   92.3910   11.9255 N.am    1  UNL1       -0.2680
      9 C          64.2288   91.6276   11.3938 C.2     1  UNL1        0.3083
     10 O          63.9734   91.5762    9.9166 O.2     1  UNL1       -0.2521
     11 N          63.3074   90.9154   12.3394 N.am    1  UNL1       -0.2642
     12 H          65.5730   92.4247   12.8950 H       1  UNL1        0.1564
     13 H          63.4750   90.9491   13.3089 H       1  UNL1        0.1566
     14 C          66.9343   95.2139    9.5923 C.ar    1  UNL1        0.1400
     15 C          68.1693   94.5274    9.0888 C.ar    1  UNL1        0.0370
     16 C          68.4830   93.1288    9.5309 C.ar    1  UNL1        0.0044
     17 C          67.5617   92.4167   10.4764 C.ar    1  UNL1        0.0149
     18 C          66.3267   93.1031   10.9799 C.ar    1  UNL1        0.0546
     19 C          66.0130   94.5018   10.5378 C.ar    1  UNL1        0.0516
     20 C          65.9230   96.8473    7.8432 C.3     1  UNL1        0.2525
     21 O          66.6206   96.6125    9.1502 O.3     1  UNL1       -0.4714
     22 C          60.9467   86.3899   11.3665 C.3     1  UNL1        0.1389
     23 C          61.9403   85.6127   10.5549 C.ar    1  UNL1        0.0385
     24 C          62.1190   85.9163    9.0969 C.ar    1  UNL1        0.1388
     25 F          61.3041   86.9970    8.4504 F       1  UNL1       -0.2044
     26 C          63.1126   85.1390    8.2852 C.ar    1  UNL1        0.0294
     27 C          63.9274   84.0582    8.9317 C.ar    1  UNL1        0.0032
     28 C          63.7487   83.7547   10.3897 C.ar    1  UNL1        0.0113
     29 C          62.7552   84.5319   11.2013 C.ar    1  UNL1        0.0577
     30 CL         62.5765   84.2283   12.6594 Cl      1  UNL1       -0.0824
@<TRIPOS>BOND
     1    20    21    1
     2    21    14    1
     3    14    15   ar
     4    15    16   ar
     5    16    17   ar
     6    17    18   ar
     7    18     8    1
     8     8     9   am
     9     9    10    2
    10     9    11   am
    11    11     1    1
    12     1     2   ar
    13     2     3   ar
    14     3     4   ar
    15     4     5   ar
    16     5    22    1
    17    22    23    1
    18    23    24   ar
    19    24    25    1
    20    24    26   ar
    21    26    27   ar
    22    27    28   ar
    23    28    29   ar
    24    29    30    1
    25     5     6   ar
    26     6     7    2
    27    18    19   ar
    28    19    14   ar
    29     6     1   ar
    30    29    23   ar
    31     8    12    1
    32    11    13    1
@<TRIPOS>MOLECULE
*****
 30 32 0 0 0
SMALL
GASTEIGER

@<TRIPOS>ATOM
      1 C          63.6770   90.2406   13.1668 C.ar    1  UNL1        0.1085
      2 C          63.8001   90.0311   14.6470 C.ar    1  UNL1        0.0211
      3 C          64.6113   90.9837   15.4744 C.ar    1  UNL1        0.0202
      4 C          65.2994   92.1458   14.8215 C.ar    1  UNL1        0.0787
      5 N          65.1762   92.3553   13.3413 N.ar    1  UNL1       -0.2888
      6 C          64.3650   91.4026   12.5140 C.ar    1  UNL1        0.2747
      7 O          64.2419   91.6120   11.0338 O.2     1  UNL1       -0.2656
      8 N          62.3203   86.8611   11.5894 N.am    1  UNL1       -0.2680
      9 C          63.1314   87.8137   12.4168 C.2     1  UNL1        0.3083
     10 O          64.2082   87.2920   13.3214 O.2     1  UNL1       -0.2521
     11 N          62.8658   89.2880   12.3395 N.am    1  UNL1       -0.2642
     12 H          61.6135   87.2035   10.9957 H       1  UNL1        0.1564
     13 H          62.1591   89.6304   11.7457 H       1  UNL1        0.1566
     14 C          62.5588   83.1631   13.0100 C.ar    1  UNL1        0.1400
     15 C          63.1170   82.4383   11.8214 C.ar    1  UNL1        0.0370
     16 C          63.4097   83.1877   10.5554 C.ar    1  UNL1        0.0044
     17 C          63.1441   84.6619   10.4780 C.ar    1  UNL1        0.0149
     18 C          62.5859   85.3868   11.6667 C.ar    1  UNL1        0.0546
     19 C          62.2932   84.6373   12.9327 C.ar    1  UNL1        0.0516
     20 C          61.3910   81.1959   14.2415 C.3     1  UNL1        0.2525
     21 O          62.2661   82.4137   14.2760 O.3     1  UNL1       -0.4714
     22 C          65.8643   93.5173   12.6885 C.3     1  UNL1        0.1389
     23 C          66.6868   93.3039   11.4524 C.ar    1  UNL1        0.0385
     24 C          67.7164   92.2137   11.4156 C.ar    1  UNL1        0.1388
     25 F          67.9236   91.3370   12.6149 F       1  UNL1       -0.2044
     26 C          68.5390   92.0004   10.1795 C.ar    1  UNL1        0.0294
     27 C          68.3318   92.8771    8.9802 C.ar    1  UNL1        0.0032
     28 C          67.3021   93.9673    9.0170 C.ar    1  UNL1        0.0113
     29 C          66.4796   94.1807   10.2531 C.ar    1  UNL1        0.0577
     30 CL         65.4500   95.2709   10.2898 Cl      1  UNL1       -0.0824
@<TRIPOS>BOND
     1    20    21    1
     2    21    14    1
     3    14    15   ar
     4    15    16   ar
     5    16    17   ar
     6    17    18   ar
     7    18     8    1
     8     8     9   am
     9     9    10    2
    10     9    11   am
    11    11     1    1
    12     1     2   ar
    13     2     3   ar
    14     3     4   ar
    15     4     5   ar
    16     5    22    1
    17    22    23    1
    18    23    24   ar
    19    24    25    1
    20    24    26   ar
    21    26    27   ar
    22    27    28   ar
    23    28    29   ar
    24    29    30    1
    25     5     6   ar
    26     6     7    2
    27    18    19   ar
    28    19    14   ar
    29     6     1   ar
    30    29    23   ar
    31     8    12    1
    32    11    13    1
@<TRIPOS>MOLECULE
*****
 30 32 0 0 0
SMALL
GASTEIGER

@<TRIPOS>ATOM
      1 C          61.8165   87.4902    9.7205 C.ar    1  UNL1        0.1085
      2 C          60.7393   87.8889    8.7557 C.ar    1  UNL1        0.0211
      3 C          60.0701   89.2247    8.8887 C.ar    1  UNL1        0.0202
      4 C          60.4779   90.1619    9.9866 C.ar    1  UNL1        0.0787
      5 N          61.5551   89.7632   10.9515 N.ar    1  UNL1       -0.2888
      6 C          62.2243   88.4274   10.8184 C.ar    1  UNL1        0.2747
      7 O          63.3014   88.0287   11.7832 O.2     1  UNL1       -0.2656
      8 N          63.0649   83.8202   10.5702 N.am    1  UNL1       -0.2680
      9 C          62.3956   85.1560   10.7032 C.2     1  UNL1        0.3083
     10 O          61.6363   85.4933   11.9520 O.2     1  UNL1       -0.2521
     11 N          62.4857   86.1545    9.5874 N.am    1  UNL1       -0.2642
     12 H          63.5633   83.5988    9.7505 H       1  UNL1        0.1564
     13 H          62.9841   85.9331    8.7678 H       1  UNL1        0.1566
     14 C          62.8920   82.2892   14.2275 C.ar    1  UNL1        0.1400
     15 C          62.7946   80.8248   13.9175 C.ar    1  UNL1        0.0370
     16 C          62.7873   80.3589   12.4917 C.ar    1  UNL1        0.0044
     17 C          62.8774   81.3573   11.3760 C.ar    1  UNL1        0.0149
     18 C          62.9748   82.8217   11.6860 C.ar    1  UNL1        0.0546
     19 C          62.9821   83.2876   13.1117 C.ar    1  UNL1        0.0516
     20 C          62.6736   84.2037   15.9701 C.3     1  UNL1        0.2525
     21 O          62.8994   82.7551   15.6533 O.3     1  UNL1       -0.4714
     22 C          61.9629   90.7004   12.0493 C.3     1  UNL1        0.1389
     23 C          63.3631   91.2362   12.0964 C.ar    1  UNL1        0.0385
     24 C          63.9816   91.8277   10.8645 C.ar    1  UNL1        0.1388
     25 F          63.1999   91.8835    9.5856 F       1  UNL1       -0.2044
     26 C          65.3819   92.3636   10.9116 C.ar    1  UNL1        0.0294
     27 C          66.1636   92.3078   12.1906 C.ar    1  UNL1        0.0032
     28 C          65.5451   91.7163   13.4225 C.ar    1  UNL1        0.0113
     29 C          64.1449   91.1805   13.3754 C.ar    1  UNL1        0.0577
     30 CL         63.5265   90.5889   14.6073 Cl      1  UNL1       -0.0824
@<TRIPOS>BOND
     1    20    21    1
     2    21    14    1
     3    14    15   ar
     4    15    16   ar
     5    16    17   ar
     6    17    18   ar
     7    18     8    1
     8     8     9   am
     9     9    10    2
    10     9    11   am
    11    11     1    1
    12     1     2   ar
    13     2     3   ar
    14     3     4   ar
    15     4     5   ar
    16     5    22    1
    17    22    23    1
    18    23    24   ar
    19    24    25    1
    20    24    26   ar
    21    26    27   ar
    22    27    28   ar
    23    28    29   ar
    24    29    30    1
    25     5     6   ar
    26     6     7    2
    27    18    19   ar
    28    19    14   ar
    29     6     1   ar
    30    29    23   ar
    31     8    12    1
    32    11    13    1
@<TRIPOS>MOLECULE
*****
 30 32 0 0 0
SMALL
GASTEIGER

@<TRIPOS>ATOM
      1 C          64.1830   91.3729   12.9932 C.ar    1  UNL1        0.1085
      2 C          64.7156   91.0436   14.3562 C.ar    1  UNL1        0.0211
      3 C          66.1516   91.3227   14.6878 C.ar    1  UNL1        0.0202
      4 C          67.0551   91.9311   13.6564 C.ar    1  UNL1        0.0787
      5 N          66.5224   92.2604   12.2934 N.ar    1  UNL1       -0.2888
      6 C          65.0863   91.9813   11.9618 C.ar    1  UNL1        0.2747
      7 O          64.5537   92.3106   10.5987 O.2     1  UNL1       -0.2656
      8 N          60.9665   89.7784   11.3016 N.am    1  UNL1       -0.2680
      9 C          62.4025   90.0575   11.6333 C.2     1  UNL1        0.3083
     10 O          63.4939   89.3002   10.9367 O.2     1  UNL1       -0.2521
     11 N          62.7470   91.0939   12.6615 N.am    1  UNL1       -0.2642
     12 H          60.2501   90.2754   11.7588 H       1  UNL1        0.1564
     13 H          62.0307   91.5909   13.1187 H       1  UNL1        0.1566
     14 C          59.6437   88.1167    7.9492 C.ar    1  UNL1        0.1400
     15 C          59.9328   86.6694    8.2169 C.ar    1  UNL1        0.0370
     16 C          60.5664   86.2584    9.5129 C.ar    1  UNL1        0.0044
     17 C          60.9110   87.2947   10.5411 C.ar    1  UNL1        0.0149
     18 C          60.6219   88.7420   10.2734 C.ar    1  UNL1        0.0546
     19 C          59.9882   89.1530    8.9774 C.ar    1  UNL1        0.0516
     20 C          59.2678   89.8948    6.0926 C.3     1  UNL1        0.2525
     21 O          59.0100   88.5277    6.6532 O.3     1  UNL1       -0.4714
     22 C          67.4258   92.8687   11.2620 C.3     1  UNL1        0.1389
     23 C          67.0648   94.1795   10.6283 C.ar    1  UNL1        0.0385
     24 C          66.3761   95.2389   11.4367 C.ar    1  UNL1        0.1388
     25 F          66.0484   94.9875   12.8786 F       1  UNL1       -0.2044
     26 C          66.0152   96.5497   10.8029 C.ar    1  UNL1        0.0294
     27 C          66.3429   96.8011    9.3610 C.ar    1  UNL1        0.0032
     28 C          67.0316   95.7417    8.5526 C.ar    1  UNL1        0.0113
     29 C          67.3926   94.4309    9.1863 C.ar    1  UNL1        0.0577
     30 CL         68.0813   93.3716    8.3779 Cl      1  UNL1       -0.0824
@<TRIPOS>BOND
     1    20    21    1
     2    21    14    1
     3    14    15   ar
     4    15    16   ar
     5    16    17   ar
     6    17    18   ar
     7    18     8    1
     8     8     9   am
     9     9    10    2
    10     9    11   am
    11    11     1    1
    12     1     2   ar
    13     2     3   ar
    14     3     4   ar
    15     4     5   ar
    16     5    22    1
    17    22    23    1
    18    23    24   ar
    19    24    25    1
    20    24    26   ar
    21    26    27   ar
    22    27    28   ar
    23    28    29   ar
    24    29    30    1
    25     5     6   ar
    26     6     7    2
    27    18    19   ar
    28    19    14   ar
    29     6     1   ar
    30    29    23   ar
    31     8    12    1
    32    11    13    1
@<TRIPOS>MOLECULE
*****
 30 32 0 0 0
SMALL
GASTEIGER

@<TRIPOS>ATOM
      1 C          62.2456   89.9305   11.6928 C.ar    1  UNL1        0.1085
      2 C          61.1725   90.5672   10.8603 C.ar    1  UNL1        0.0211
      3 C          60.0947   89.7205   10.2509 C.ar    1  UNL1        0.0202
      4 C          60.0899   88.2372   10.4739 C.ar    1  UNL1        0.0787
      5 N          61.1630   87.6005   11.3064 N.ar    1  UNL1       -0.2888
      6 C          62.2409   88.4472   11.9159 C.ar    1  UNL1        0.2747
      7 O          63.3140   87.8106   12.7484 O.2     1  UNL1       -0.2656
      8 N          65.2022   92.5538   12.0493 N.am    1  UNL1       -0.2680
      9 C          64.1244   91.7071   11.4398 C.2     1  UNL1        0.3083
     10 O          63.8474   91.7905    9.9680 O.2     1  UNL1       -0.2521
     11 N          63.3235   90.7771   12.3023 N.am    1  UNL1       -0.2642
     12 H          65.3840   92.4991   13.0153 H       1  UNL1        0.1564
     13 H          63.5052   90.7224   13.2683 H       1  UNL1        0.1566
     14 C          67.6584   93.8642    9.2209 C.ar    1  UNL1        0.1400
     15 C          67.6048   95.3437    9.4621 C.ar    1  UNL1        0.0370
     16 C          66.7504   95.8932   10.5657 C.ar    1  UNL1        0.0044
     17 C          65.9495   94.9633   11.4281 C.ar    1  UNL1        0.0149
     18 C          66.0031   93.4838   11.1869 C.ar    1  UNL1        0.0546
     19 C          66.8575   92.9343   10.0833 C.ar    1  UNL1        0.0516
     20 C          69.1325   91.9556    8.2544 C.3     1  UNL1        0.2525
     21 O          68.5129   93.3147    8.1173 O.3     1  UNL1       -0.4714
     22 C          61.1583   86.1172   11.5295 C.3     1  UNL1        0.1389
     23 C          62.1994   85.2573   10.8764 C.ar    1  UNL1        0.0385
     24 C          62.4889   85.4113    9.4127 C.ar    1  UNL1        0.1388
     25 F          61.7374   86.4252    8.6021 F       1  UNL1       -0.2044
     26 C          63.5301   84.5513    8.7595 C.ar    1  UNL1        0.0294
     27 C          64.2817   83.5374    9.5701 C.ar    1  UNL1        0.0032
     28 C          63.9922   83.3834   11.0339 C.ar    1  UNL1        0.0113
     29 C          62.9511   84.2434   11.6870 C.ar    1  UNL1        0.0577
     30 CL         62.6615   84.0894   13.1507 Cl      1  UNL1       -0.0824
@<TRIPOS>BOND
     1    20    21    1
     2    21    14    1
     3    14    15   ar
     4    15    16   ar
     5    16    17   ar
     6    17    18   ar
     7    18     8    1
     8     8     9   am
     9     9    10    2
    10     9    11   am
    11    11     1    1
    12     1     2   ar
    13     2     3   ar
    14     3     4   ar
    15     4     5   ar
    16     5    22    1
    17    22    23    1
    18    23    24   ar
    19    24    25    1
    20    24    26   ar
    21    26    27   ar
    22    27    28   ar
    23    28    29   ar
    24    29    30    1
    25     5     6   ar
    26     6     7    2
    27    18    19   ar
    28    19    14   ar
    29     6     1   ar
    30    29    23   ar
    31     8    12    1
    32    11    13    1
@<TRIPOS>MOLECULE
*****
 30 32 0 0 0
SMALL
GASTEIGER

@<TRIPOS>ATOM
      1 C          63.7576   90.4887   13.6269 C.ar    1  UNL1        0.1085
      2 C          64.5881   89.7778   14.6540 C.ar    1  UNL1        0.0211
      3 C          65.9568   90.2877   14.9955 C.ar    1  UNL1        0.0202
      4 C          66.4951   91.5085   14.3099 C.ar    1  UNL1        0.0787
      5 N          65.6646   92.2193   13.2828 N.ar    1  UNL1       -0.2888
      6 C          64.2958   91.7094   12.9413 C.ar    1  UNL1        0.2747
      7 O          63.4653   92.4202   11.9142 O.2     1  UNL1       -0.2656
      8 N          60.7766   88.8011   11.6231 N.am    1  UNL1       -0.2680
      9 C          62.1453   89.3109   11.9646 C.2     1  UNL1        0.3083
     10 O          63.2704   89.1530   10.9852 O.2     1  UNL1       -0.2521
     11 N          62.3889   89.9788   13.2855 N.am    1  UNL1       -0.2642
     12 H          60.0382   88.9047   12.2659 H       1  UNL1        0.1564
     13 H          61.6505   90.0825   13.9283 H       1  UNL1        0.1566
     14 C          59.5794   88.2053    7.8865 C.ar    1  UNL1        0.1400
     15 C          60.0457   86.7977    7.6605 C.ar    1  UNL1        0.0370
     16 C          60.7556   86.0578    8.7553 C.ar    1  UNL1        0.0044
     17 C          60.9992   86.7256   10.0762 C.ar    1  UNL1        0.0149
     18 C          60.5330   88.1332   10.3022 C.ar    1  UNL1        0.0546
     19 C          59.8230   88.8731    9.2074 C.ar    1  UNL1        0.0516
     20 C          59.5960   89.9921    6.0005 C.3     1  UNL1        0.2525
     21 O          58.8695   88.9452    6.7917 O.3     1  UNL1       -0.4714
     22 C          66.2028   93.4400   12.5971 C.3     1  UNL1        0.1389
     23 C          66.8803   93.3145   11.2648 C.ar    1  UNL1        0.0385
     24 C          67.9418   92.2750   11.0581 C.ar    1  UNL1        0.1388
     25 F          68.3257   91.3610   12.1838 F       1  UNL1       -0.2044
     26 C          68.6193   92.1496    9.7257 C.ar    1  UNL1        0.0294
     27 C          68.2353   93.0635    8.6000 C.ar    1  UNL1        0.0032
     28 C          67.1738   94.1030    8.8067 C.ar    1  UNL1        0.0113
     29 C          66.4963   94.2285   10.1391 C.ar    1  UNL1        0.0577
     30 CL         65.4349   95.2680   10.3457 Cl      1  UNL1       -0.0824
@<TRIPOS>BOND
     1    20    21    1
     2    21    14    1
     3    14    15   ar
     4    15    16   ar
     5    16    17   ar
     6    17    18   ar
     7    18     8    1
     8     8     9   am
     9     9    10    2
    10     9    11   am
    11    11     1    1
    12     1     2   ar
    13     2     3   ar
    14     3     4   ar
    15     4     5   ar
    16     5    22    1
    17    22    23    1
    18    23    24   ar
    19    24    25    1
    20    24    26   ar
    21    26    27   ar
    22    27    28   ar
    23    28    29   ar
    24    29    30    1
    25     5     6   ar
    26     6     7    2
    27    18    19   ar
    28    19    14   ar
    29     6     1   ar
    30    29    23   ar
    31     8    12    1
    32    11    13    1
@<TRIPOS>MOLECULE
*****
 30 32 0 0 0
SMALL
GASTEIGER

@<TRIPOS>ATOM
      1 C          63.6856   88.4368   13.2018 C.ar    1  UNL1        0.1085
      2 C          62.9788   88.3975   11.8794 C.ar    1  UNL1        0.0211
      3 C          62.8322   89.6516   11.0697 C.ar    1  UNL1        0.0202
      4 C          63.3924   90.9452   11.5826 C.ar    1  UNL1        0.0787
      5 N          64.0992   90.9845   12.9050 N.ar    1  UNL1       -0.2888
      6 C          64.2458   89.7303   13.7146 C.ar    1  UNL1        0.2747
      7 O          64.9526   89.7696   15.0371 O.2     1  UNL1       -0.2656
      8 N          63.5968   84.6043   14.2286 N.am    1  UNL1       -0.2680
      9 C          63.4502   85.8585   13.4190 C.2     1  UNL1        0.3083
     10 O          62.9216   85.7887   12.0170 O.2     1  UNL1       -0.2521
     11 N          63.8322   87.1826   14.0114 N.am    1  UNL1       -0.2642
     12 H          63.9438   84.6502   15.1488 H       1  UNL1        0.1564
     13 H          64.1792   87.2285   14.9316 H       1  UNL1        0.1566
     14 C          61.8369   81.0803   13.7448 C.ar    1  UNL1        0.1400
     15 C          62.4507   80.6321   12.4516 C.ar    1  UNL1        0.0370
     16 C          63.4465   81.5080   11.7507 C.ar    1  UNL1        0.0044
     17 C          63.8286   82.8321   12.3431 C.ar    1  UNL1        0.0149
     18 C          63.2148   83.2802   13.6362 C.ar    1  UNL1        0.0546
     19 C          62.2190   82.4044   14.3371 C.ar    1  UNL1        0.0516
     20 C          59.3749   80.3727   14.1777 C.3     1  UNL1        0.2525
     21 O          60.8411   80.2044   14.4456 O.3     1  UNL1       -0.4714
     22 C          64.6593   92.2780   13.4179 C.3     1  UNL1        0.1389
     23 C          66.0065   92.3029   14.0770 C.ar    1  UNL1        0.0385
     24 C          66.1097   92.4301   15.5680 C.ar    1  UNL1        0.1388
     25 F          64.8658   92.5323   16.3999 F       1  UNL1       -0.2044
     26 C          67.4570   92.4550   16.2272 C.ar    1  UNL1        0.0294
     27 C          68.7009   92.3528   15.3953 C.ar    1  UNL1        0.0032
     28 C          68.5977   92.2256   13.9042 C.ar    1  UNL1        0.0113
     29 C          67.2505   92.2007   13.2451 C.ar    1  UNL1        0.0577
     30 CL         67.1473   92.0736   11.7541 Cl      1  UNL1       -0.0824
@<TRIPOS>BOND
     1    20    21    1
     2    21    14    1
     3    14    15   ar
     4    15    16   ar
     5    16    17   ar
     6    17    18   ar
     7    18     8    1
     8     8     9   am
     9     9    10    2
    10     9    11   am
    11    11     1    1
    12     1     2   ar
    13     2     3   ar
    14     3     4   ar
    15     4     5   ar
    16     5    22    1
    17    22    23    1
    18    23    24   ar
    19    24    25    1
    20    24    26   ar
    21    26    27   ar
    22    27    28   ar
    23    28    29   ar
    24    29    30    1
    25     5     6   ar
    26     6     7    2
    27    18    19   ar
    28    19    14   ar
    29     6     1   ar
    30    29    23   ar
    31     8    12    1
    32    11    13    1
