@<TRIPOS>MOLECULE
*****
 27 30 0 0 0
SMALL
GASTEIGER

@<TRIPOS>ATOM
      1 O          68.5614   94.4343   16.0739 O.2     1  UNL1       -0.2961
      2 C          67.5592   93.6087   15.3229 C.2     1  UNL1        0.1509
      3 C          66.9575   92.3934   15.9639 C.3     1  UNL1        0.0666
      4 C          65.9553   91.5678   15.2129 C.3     1  UNL1        0.0346
      5 C          65.5548   91.9575   13.8210 C.3     1  UNL1        0.1427
      6 C          64.5526   91.1319   13.0700 C.ar    1  UNL1        0.0616
      7 C          63.9509   89.9166   13.7110 C.ar    1  UNL1        0.1407
      8 F          64.1155   89.2533   15.0464 F       1  UNL1       -0.2043
      9 C          62.9487   89.0910   12.9600 C.ar    1  UNL1        0.0319
     10 C          62.5482   89.4807   11.5680 C.ar    1  UNL1        0.0351
     11 C          63.1499   90.6960   10.9270 C.ar    1  UNL1        0.1737
     12 F          62.7494   91.0858    9.5350 F       1  UNL1       -0.2010
     13 C          64.1521   91.5216   11.6780 C.ar    1  UNL1        0.1654
     14 O          64.7538   92.7370   11.0369 O.3     1  UNL1       -0.4733
     15 C          65.7560   93.5626   11.7879 C.3     1  UNL1        0.2078
     16 C          66.1565   93.1728   13.1800 C.3     1  UNL1        0.0758
     17 C          67.1587   93.9984   13.9309 C.3     1  UNL1        0.0702
     18 S          64.9531   90.7422   14.4620 S.O2    1  UNL1        0.0093
     19 O          65.3934   90.0783   14.4925 O.2     1  UNL1       -0.1684
     20 O          63.5866   91.1938   14.8848 O.2     1  UNL1       -0.1684
     21 C          64.3514   89.5268   15.1030 C.ar    1  UNL1        0.1059
     22 C          64.7637   88.1578   14.6494 C.ar    1  UNL1        0.0192
     23 C          64.1620   86.9425   15.2904 C.ar    1  UNL1        0.0127
     24 C          63.1479   87.0961   16.3851 C.ar    1  UNL1        0.0578
     25 CL         62.5463   85.8808   17.0260 Cl      1  UNL1       -0.0822
     26 C          62.7356   88.4652   16.8386 C.ar    1  UNL1        0.0127
     27 C          63.3374   89.6805   16.1976 C.ar    1  UNL1        0.0192
@<TRIPOS>BOND
     1     1     2    2
     2     2     3    1
     3     3     4    1
     4     4     5    1
     5     5    18    1
     6    18    19    2
     7    18    20    2
     8    18    21    1
     9    21    22   ar
    10    22    23   ar
    11    23    24   ar
    12    24    25    1
    13    24    26   ar
    14    26    27   ar
    15     5     6    1
    16     6     7   ar
    17     7     8    1
    18     7     9   ar
    19     9    10   ar
    20    10    11   ar
    21    11    12    1
    22    11    13   ar
    23    13    14    1
    24    14    15    1
    25    15    16    1
    26    16    17    1
    27    17     2    1
    28    16     5    1
    29    27    21   ar
    30    13     6   ar
@<TRIPOS>MOLECULE
*****
 27 30 0 0 0
SMALL
GASTEIGER

@<TRIPOS>ATOM
      1 O          59.4262   87.4486    7.4255 O.2     1  UNL1       -0.2961
      2 C          60.3014   87.3513    8.6398 C.2     1  UNL1        0.1509
      3 C          60.6501   86.0073    9.2073 C.3     1  UNL1        0.0666
      4 C          61.5253   85.9100   10.4216 C.3     1  UNL1        0.0346
      5 C          62.0518   87.1567   11.0685 C.3     1  UNL1        0.1427
      6 C          62.9270   87.0594   12.2828 C.ar    1  UNL1        0.0616
      7 C          63.2757   85.7154   12.8502 C.ar    1  UNL1        0.1407
      8 F          62.9358   84.3042   12.4714 F       1  UNL1       -0.2043
      9 C          64.1509   85.6181   14.0645 C.ar    1  UNL1        0.0319
     10 C          64.6774   86.8647   14.7114 C.ar    1  UNL1        0.0351
     11 C          64.3287   88.2087   14.1440 C.ar    1  UNL1        0.1737
     12 F          64.8552   89.4555   14.7909 F       1  UNL1       -0.2010
     13 C          63.4535   88.3061   12.9297 C.ar    1  UNL1        0.1654
     14 O          63.1048   89.6502   12.3623 O.3     1  UNL1       -0.4733
     15 C          62.2296   89.7475   11.1480 C.3     1  UNL1        0.2078
     16 C          61.7031   88.5007   10.5011 C.3     1  UNL1        0.0758
     17 C          60.8279   88.5980    9.2867 C.3     1  UNL1        0.0702
     18 S          62.4005   85.8127   11.6359 S.O2    1  UNL1        0.0093
     19 O          62.1784   85.6534   12.3848 O.2     1  UNL1       -0.1684
     20 O          63.1240   85.1231   10.5173 O.2     1  UNL1       -0.1684
     21 C          62.7492   84.4686   12.2033 C.ar    1  UNL1        0.1059
     22 C          61.9791   83.9242   13.3698 C.ar    1  UNL1        0.0192
     23 C          62.3278   82.5802   13.9372 C.ar    1  UNL1        0.0127
     24 C          63.4466   81.7805   13.3381 C.ar    1  UNL1        0.0578
     25 CL         63.7953   80.4365   13.9055 Cl      1  UNL1       -0.0822
     26 C          64.2167   82.3249   12.1716 C.ar    1  UNL1        0.0127
     27 C          63.8680   83.6690   11.6042 C.ar    1  UNL1        0.0192
@<TRIPOS>BOND
     1     1     2    2
     2     2     3    1
     3     3     4    1
     4     4     5    1
     5     5    18    1
     6    18    19    2
     7    18    20    2
     8    18    21    1
     9    21    22   ar
    10    22    23   ar
    11    23    24   ar
    12    24    25    1
    13    24    26   ar
    14    26    27   ar
    15     5     6    1
    16     6     7   ar
    17     7     8    1
    18     7     9   ar
    19     9    10   ar
    20    10    11   ar
    21    11    12    1
    22    11    13   ar
    23    13    14    1
    24    14    15    1
    25    15    16    1
    26    16    17    1
    27    17     2    1
    28    16     5    1
    29    27    21   ar
    30    13     6   ar
@<TRIPOS>MOLECULE
*****
 27 30 0 0 0
SMALL
GASTEIGER

@<TRIPOS>ATOM
      1 O          63.1370   80.7080   13.9467 O.2     1  UNL1       -0.2961
      2 C          63.1443   82.1753   13.6353 C.2     1  UNL1        0.1509
      3 C          62.3977   82.6924   12.4416 C.3     1  UNL1        0.0666
      4 C          62.4051   84.1597   12.1302 C.3     1  UNL1        0.0346
      5 C          63.1591   85.1099   13.0125 C.3     1  UNL1        0.1427
      6 C          63.1664   86.5772   12.7011 C.ar    1  UNL1        0.0616
      7 C          62.4198   87.0944   11.5074 C.ar    1  UNL1        0.1407
      8 F          61.5849   86.4496   10.4409 F       1  UNL1       -0.2043
      9 C          62.4272   88.5617   11.1960 C.ar    1  UNL1        0.0319
     10 C          63.1812   89.5118   12.0783 C.ar    1  UNL1        0.0351
     11 C          63.9278   88.9947   13.2721 C.ar    1  UNL1        0.1737
     12 F          64.6819   89.9449   14.1545 F       1  UNL1       -0.2010
     13 C          63.9204   87.5274   13.5835 C.ar    1  UNL1        0.1654
     14 O          64.6671   87.0103   14.7773 O.3     1  UNL1       -0.4733
     15 C          64.6598   85.5430   15.0887 C.3     1  UNL1        0.2078
     16 C          63.9057   84.5928   14.2063 C.3     1  UNL1        0.0758
     17 C          63.8983   83.1255   14.5177 C.3     1  UNL1        0.0702
     18 S          62.4124   85.6270   11.8188 S.O2    1  UNL1        0.0093
     19 O          61.7353   86.0282   11.9457 O.2     1  UNL1       -0.1684
     20 O          63.2467   85.1895   10.6514 O.2     1  UNL1       -0.1684
     21 C          61.6658   86.1442   10.6249 C.ar    1  UNL1        0.1059
     22 C          60.4164   86.9524   10.8141 C.ar    1  UNL1        0.0192
     23 C          59.6697   87.4695    9.6203 C.ar    1  UNL1        0.0127
     24 C          60.1725   87.1784    8.2373 C.ar    1  UNL1        0.0578
     25 CL         59.4259   87.6956    7.0436 Cl      1  UNL1       -0.0822
     26 C          61.4219   86.3703    8.0482 C.ar    1  UNL1        0.0127
     27 C          62.1686   85.8531    9.2420 C.ar    1  UNL1        0.0192
@<TRIPOS>BOND
     1     1     2    2
     2     2     3    1
     3     3     4    1
     4     4     5    1
     5     5    18    1
     6    18    19    2
     7    18    20    2
     8    18    21    1
     9    21    22   ar
    10    22    23   ar
    11    23    24   ar
    12    24    25    1
    13    24    26   ar
    14    26    27   ar
    15     5     6    1
    16     6     7   ar
    17     7     8    1
    18     7     9   ar
    19     9    10   ar
    20    10    11   ar
    21    11    12    1
    22    11    13   ar
    23    13    14    1
    24    14    15    1
    25    15    16    1
    26    16    17    1
    27    17     2    1
    28    16     5    1
    29    27    21   ar
    30    13     6   ar
@<TRIPOS>MOLECULE
*****
 27 30 0 0 0
SMALL
GASTEIGER

@<TRIPOS>ATOM
      1 O          61.3329   88.6217    9.9572 O.2     1  UNL1       -0.2961
      2 C          62.2947   89.4934   10.7089 C.2     1  UNL1        0.1509
      3 C          63.0297   90.5887    9.9948 C.3     1  UNL1        0.0666
      4 C          63.9915   91.4605   10.7465 C.3     1  UNL1        0.0346
      5 C          64.2182   91.2370   12.2123 C.3     1  UNL1        0.1427
      6 C          65.1800   92.1087   12.9639 C.ar    1  UNL1        0.0616
      7 C          65.9150   93.2040   12.2498 C.ar    1  UNL1        0.1407
      8 F          65.9321   93.6958   10.8328 F       1  UNL1       -0.2043
      9 C          66.8768   94.0758   13.0015 C.ar    1  UNL1        0.0319
     10 C          67.1036   93.8522   14.4673 C.ar    1  UNL1        0.0351
     11 C          66.3686   92.7569   15.1814 C.ar    1  UNL1        0.1737
     12 F          66.5953   92.5333   16.6473 F       1  UNL1       -0.2010
     13 C          65.4068   91.8852   14.4297 C.ar    1  UNL1        0.1654
     14 O          64.6717   90.7898   15.1439 O.3     1  UNL1       -0.4733
     15 C          63.7100   89.9180   14.3922 C.3     1  UNL1        0.2078
     16 C          63.4832   90.1416   12.9264 C.3     1  UNL1        0.0758
     17 C          62.5214   89.2699   12.1747 C.3     1  UNL1        0.0702
     18 S          64.9533   92.3323   11.4982 S.O2    1  UNL1        0.0093
     19 O          64.5241   92.9145   11.1630 O.2     1  UNL1       -0.1684
     20 O          66.3981   91.9587   11.6499 O.2     1  UNL1       -0.1684
     21 C          65.6884   93.4276   10.7840 C.ar    1  UNL1        0.1059
     22 C          65.1728   94.8352   10.8370 C.ar    1  UNL1        0.0192
     23 C          65.9078   95.9305   10.1229 C.ar    1  UNL1        0.0127
     24 C          67.1585   95.6183    9.3558 C.ar    1  UNL1        0.0578
     25 CL         67.8935   96.7136    8.6418 Cl      1  UNL1       -0.0822
     26 C          67.6741   94.2107    9.3029 C.ar    1  UNL1        0.0127
     27 C          66.9390   93.1153   10.0170 C.ar    1  UNL1        0.0192
@<TRIPOS>BOND
     1     1     2    2
     2     2     3    1
     3     3     4    1
     4     4     5    1
     5     5    18    1
     6    18    19    2
     7    18    20    2
     8    18    21    1
     9    21    22   ar
    10    22    23   ar
    11    23    24   ar
    12    24    25    1
    13    24    26   ar
    14    26    27   ar
    15     5     6    1
    16     6     7   ar
    17     7     8    1
    18     7     9   ar
    19     9    10   ar
    20    10    11   ar
    21    11    12    1
    22    11    13   ar
    23    13    14    1
    24    14    15    1
    25    15    16    1
    26    16    17    1
    27    17     2    1
    28    16     5    1
    29    27    21   ar
    30    13     6   ar
@<TRIPOS>MOLECULE
*****
 27 30 0 0 0
SMALL
GASTEIGER

@<TRIPOS>ATOM
      1 O          59.9541   89.6445    8.0083 O.2     1  UNL1       -0.2961
      2 C          60.7419   89.0799    9.1532 C.2     1  UNL1        0.1509
      3 C          61.4102   90.0011   10.1303 C.3     1  UNL1        0.0666
      4 C          62.1980   89.4365   11.2751 C.3     1  UNL1        0.0346
      5 C          62.3175   87.9507   11.4428 C.3     1  UNL1        0.1427
      6 C          63.1053   87.3861   12.5876 C.ar    1  UNL1        0.0616
      7 C          63.7735   88.3073   13.5648 C.ar    1  UNL1        0.1407
      8 F          63.8610   89.7988   13.6986 F       1  UNL1       -0.2043
      9 C          64.5613   87.7427   14.7096 C.ar    1  UNL1        0.0319
     10 C          64.6809   86.2569   14.8773 C.ar    1  UNL1        0.0351
     11 C          64.0126   85.3358   13.9001 C.ar    1  UNL1        0.1737
     12 F          64.1322   83.8499   14.0678 F       1  UNL1       -0.2010
     13 C          63.2248   85.9004   12.7553 C.ar    1  UNL1        0.1654
     14 O          62.5566   84.9791   11.7781 O.3     1  UNL1       -0.4733
     15 C          61.7688   85.5437   10.6333 C.3     1  UNL1        0.2078
     16 C          61.6493   87.0296   10.4657 C.3     1  UNL1        0.0758
     17 C          60.8615   87.5942    9.3208 C.3     1  UNL1        0.0702
     18 S          62.9857   88.8719   12.4200 S.O2    1  UNL1        0.0093
     19 O          63.7816   88.8573   12.4641 O.2     1  UNL1       -0.1684
     20 O          61.8466   89.6003   13.0695 O.2     1  UNL1       -0.1684
     21 C          63.6540   89.7931   13.3972 C.ar    1  UNL1        0.1059
     22 C          64.8764   90.5606   12.9890 C.ar    1  UNL1        0.0192
     23 C          65.5446   91.4818   13.9661 C.ar    1  UNL1        0.0127
     24 C          64.9904   91.6355   15.3515 C.ar    1  UNL1        0.0578
     25 CL         65.6587   92.5567   16.3286 Cl      1  UNL1       -0.0822
     26 C          63.7680   90.8681   15.7597 C.ar    1  UNL1        0.0127
     27 C          63.0998   89.9468   14.7825 C.ar    1  UNL1        0.0192
@<TRIPOS>BOND
     1     1     2    2
     2     2     3    1
     3     3     4    1
     4     4     5    1
     5     5    18    1
     6    18    19    2
     7    18    20    2
     8    18    21    1
     9    21    22   ar
    10    22    23   ar
    11    23    24   ar
    12    24    25    1
    13    24    26   ar
    14    26    27   ar
    15     5     6    1
    16     6     7   ar
    17     7     8    1
    18     7     9   ar
    19     9    10   ar
    20    10    11   ar
    21    11    12    1
    22    11    13   ar
    23    13    14    1
    24    14    15    1
    25    15    16    1
    26    16    17    1
    27    17     2    1
    28    16     5    1
    29    27    21   ar
    30    13     6   ar
@<TRIPOS>MOLECULE
*****
 27 30 0 0 0
SMALL
GASTEIGER

@<TRIPOS>ATOM
      1 O          64.6274   92.2672   13.5970 O.2     1  UNL1       -0.2961
      2 C          64.2531   90.8330   13.3668 C.2     1  UNL1        0.1509
      3 C          63.4361   90.4543   12.1672 C.3     1  UNL1        0.0666
      4 C          63.0618   89.0201   11.9371 C.3     1  UNL1        0.0346
      5 C          63.5045   87.9646   12.9065 C.3     1  UNL1        0.1427
      6 C          63.1302   86.5304   12.6764 C.ar    1  UNL1        0.0616
      7 C          62.3132   86.1517   11.4768 C.ar    1  UNL1        0.1407
      8 F          61.7172   86.9226   10.3363 F       1  UNL1       -0.2043
      9 C          61.9389   84.7175   11.2466 C.ar    1  UNL1        0.0319
     10 C          62.3815   83.6620   12.2161 C.ar    1  UNL1        0.0351
     11 C          63.1985   84.0407   13.4157 C.ar    1  UNL1        0.1737
     12 F          63.6412   82.9852   14.3853 F       1  UNL1       -0.2010
     13 C          63.5728   85.4749   13.6459 C.ar    1  UNL1        0.1654
     14 O          64.3898   85.8536   14.8456 O.3     1  UNL1       -0.4733
     15 C          64.7641   87.2878   15.0757 C.3     1  UNL1        0.2078
     16 C          64.3214   88.3433   14.1061 C.3     1  UNL1        0.0758
     17 C          64.6958   89.7775   14.3363 C.3     1  UNL1        0.0702
     18 S          62.6875   87.5859   11.7069 S.O2    1  UNL1        0.0093
     19 O          63.0231   87.1137   11.1593 O.2     1  UNL1       -0.1684
     20 O          61.3741   88.2754   11.9299 O.2     1  UNL1       -0.1684
     21 C          61.8705   87.2072   10.5073 C.ar    1  UNL1        0.1059
     22 C          62.5388   86.6198    9.2997 C.ar    1  UNL1        0.0192
     23 C          61.7219   86.2411    8.1001 C.ar    1  UNL1        0.0127
     24 C          60.2364   86.4499    8.1080 C.ar    1  UNL1        0.0578
     25 CL         59.4195   86.0712    6.9084 Cl      1  UNL1       -0.0822
     26 C          59.5681   87.0373    9.3155 C.ar    1  UNL1        0.0127
     27 C          60.3851   87.4160   10.5152 C.ar    1  UNL1        0.0192
@<TRIPOS>BOND
     1     1     2    2
     2     2     3    1
     3     3     4    1
     4     4     5    1
     5     5    18    1
     6    18    19    2
     7    18    20    2
     8    18    21    1
     9    21    22   ar
    10    22    23   ar
    11    23    24   ar
    12    24    25    1
    13    24    26   ar
    14    26    27   ar
    15     5     6    1
    16     6     7   ar
    17     7     8    1
    18     7     9   ar
    19     9    10   ar
    20    10    11   ar
    21    11    12    1
    22    11    13   ar
    23    13    14    1
    24    14    15    1
    25    15    16    1
    26    16    17    1
    27    17     2    1
    28    16     5    1
    29    27    21   ar
    30    13     6   ar
