@<TRIPOS>MOLECULE
*****
 39 45 0 0 0
SMALL
GASTEIGER

@<TRIPOS>ATOM
      1 N          61.3480   86.3658   11.1141 N.pl3   1  UNL1       -0.3414
      2 C          60.8504   86.6202    9.7221 C.ar    1  UNL1        0.1432
      3 N          60.5009   85.4675    8.8282 N.ar    1  UNL1       -0.2265
      4 C          60.0033   85.7219    7.4362 C.ar    1  UNL1        0.1193
      5 C          59.8552   87.1291    6.9382 C.ar    1  UNL1        0.1020
      6 N          60.2047   88.2817    7.8321 N.ar    1  UNL1       -0.2885
      7 C          60.7023   88.0273    9.2241 C.ar    1  UNL1        0.1141
      8 C          60.9666   89.3543    9.8716 C.ar    1  UNL1        0.1014
      9 N          60.6324   90.4288    8.8799 N.ar    1  UNL1       -0.2305
     10 C          60.1615   89.7660    7.6194 C.ar    1  UNL1        0.1239
     11 H          61.4452   85.4422   11.4410 H       1  UNL1        0.1438
     12 H          61.5774   87.1224   11.7008 H       1  UNL1        0.1438
     13 C          61.4758   89.5690   11.2662 C.ar    1  UNL1        0.0207
     14 C          60.6362   89.1650   12.4417 C.ar    1  UNL1        0.0016
     15 C          61.1454   89.3797   13.8362 C.ar    1  UNL1        0.0015
     16 C          62.4942   89.9984   14.0551 C.ar    1  UNL1        0.0177
     17 C          63.0034   90.2130   15.4497 C.ar    1  UNL1        0.0030
     18 C          64.3523   90.8317   15.6687 C.ar    1  UNL1        0.0191
     19 C          65.1919   91.2356   14.4931 C.ar    1  UNL1        0.0812
     20 N          64.6827   91.0209   13.0986 N.ar    1  UNL1       -0.2454
     21 C          63.3339   90.4023   12.8796 C.ar    1  UNL1        0.0813
     22 C          62.8247   90.1876   11.4852 C.ar    1  UNL1        0.0206
     23 C          66.5408   91.8542   14.7121 C.ar    1  UNL1        0.0176
     24 C          67.6476   91.6069   13.7303 C.ar    1  UNL1        0.0015
     25 C          68.9964   92.2255   13.9492 C.ar    1  UNL1        0.0000
     26 C          69.2384   93.0914   15.1500 C.ar    1  UNL1        0.0000
     27 C          68.1316   93.3386   16.1317 C.ar    1  UNL1        0.0000
     28 C          66.7828   92.7200   15.9127 C.ar    1  UNL1        0.0015
     29 C          59.7242   90.4647    6.3661 C.3     1  UNL1        0.0573
     30 C          58.4017   90.8548    5.7756 C.3     1  UNL1        0.0089
     31 C          59.1058   91.4528    4.5938 C.3     1  UNL1        0.0168
     32 C          60.4283   91.0627    5.1843 C.3     1  UNL1        0.0089
     33 C          58.6685   92.1515    3.3405 C.3     1  UNL1        0.0722
     34 N          59.6924   92.6881    2.3847 N.3     1  UNL1       -0.2685
     35 C          59.2772   93.1369    1.0149 C.3     1  UNL1        0.1046
     36 C          60.3012   93.6735    0.0591 C.3     1  UNL1        0.1595
     37 O          61.7403   93.7614    0.4730 O.3     1  UNL1       -0.3508
     38 C          62.1553   93.3125    1.8428 C.3     1  UNL1        0.1595
     39 C          61.1314   92.7759    2.7986 C.3     1  UNL1        0.1046
@<TRIPOS>BOND
     1     1     2    1
     2     2     3   ar
     3     3     4   ar
     4     4     5   ar
     5     5     6   ar
     6     6     7   ar
     7     7     8   ar
     8     8    13    1
     9    13    14   ar
    10    14    15   ar
    11    15    16   ar
    12    16    17   ar
    13    17    18   ar
    14    18    19   ar
    15    19    23    1
    16    23    24   ar
    17    24    25   ar
    18    25    26   ar
    19    26    27   ar
    20    27    28   ar
    21    19    20   ar
    22    20    21   ar
    23    21    22   ar
    24     8     9   ar
    25     9    10   ar
    26    29    10    1
    27    29    30    1
    28    30    31    1
    29    31    33    1
    30    33    34    1
    31    34    35    1
    32    35    36    1
    33    36    37    1
    34    37    38    1
    35    38    39    1
    36    31    32    1
    37     7     2   ar
    38    22    13   ar
    39    32    29    1
    40    10     6   ar
    41    39    34    1
    42    21    16   ar
    43    28    23   ar
    44     1    11    1
    45     1    12    1
@<TRIPOS>MOLECULE
*****
 39 45 0 0 0
SMALL
GASTEIGER

@<TRIPOS>ATOM
      1 N          62.1467   90.1061   10.2426 N.pl3   1  UNL1       -0.3414
      2 C          61.7702   88.6544   10.2682 C.ar    1  UNL1        0.1432
      3 N          60.8025   88.1126    9.2583 N.ar    1  UNL1       -0.2265
      4 C          60.4260   86.6609    9.2838 C.ar    1  UNL1        0.1193
      5 C          61.0174   85.7509   10.3194 C.ar    1  UNL1        0.1020
      6 N          61.9851   86.2927   11.3292 N.ar    1  UNL1       -0.2885
      7 C          62.3615   87.7444   11.3037 C.ar    1  UNL1        0.1141
      8 C          63.3339   87.9908   12.4189 C.ar    1  UNL1        0.1014
      9 N          63.5585   86.6914   13.1337 N.ar    1  UNL1       -0.2305
     10 C          62.7248   85.6419   12.4603 C.ar    1  UNL1        0.1239
     11 H          61.7586   90.7034    9.5630 H       1  UNL1        0.1438
     12 H          62.7819   90.4617   10.9055 H       1  UNL1        0.1438
     13 C          63.9701   89.3059   12.7595 C.ar    1  UNL1        0.0207
     14 C          64.2881   89.6378   14.1873 C.ar    1  UNL1        0.0016
     15 C          64.9243   90.9528   14.5278 C.ar    1  UNL1        0.0015
     16 C          65.2424   91.9360   13.4405 C.ar    1  UNL1        0.0177
     17 C          65.8786   93.2510   13.7811 C.ar    1  UNL1        0.0030
     18 C          66.1968   94.2342   12.6938 C.ar    1  UNL1        0.0191
     19 C          65.8787   93.9022   11.2659 C.ar    1  UNL1        0.0812
     20 N          65.2426   92.5872   10.9254 N.ar    1  UNL1       -0.2454
     21 C          64.9244   91.6041   12.0127 C.ar    1  UNL1        0.0813
     22 C          64.2883   90.2891   11.6722 C.ar    1  UNL1        0.0206
     23 C          66.1969   94.8853   10.1786 C.ar    1  UNL1        0.0176
     24 C          65.1592   95.8726    9.7329 C.ar    1  UNL1        0.0015
     25 C          65.4774   96.8557    8.6456 C.ar    1  UNL1        0.0000
     26 C          66.8332   96.8516    8.0040 C.ar    1  UNL1        0.0000
     27 C          67.8709   95.8644    8.4496 C.ar    1  UNL1        0.0000
     28 C          67.5527   94.8813    9.5369 C.ar    1  UNL1        0.0015
     29 C          62.6450   84.1954   12.8496 C.3     1  UNL1        0.0573
     30 C          62.5636   83.4495   14.1484 C.3     1  UNL1        0.0089
     31 C          62.5320   82.1499   13.4001 C.3     1  UNL1        0.0168
     32 C          62.6133   82.8958   12.1012 C.3     1  UNL1        0.0089
     33 C          62.4521   80.7035   13.7893 C.3     1  UNL1        0.0722
     34 N          61.1169   80.0651   14.0335 N.3     1  UNL1       -0.2685
     35 C          59.8920   80.9193   14.1757 C.3     1  UNL1        0.1046
     36 C          58.5567   80.2809   14.4199 C.3     1  UNL1        0.1595
     37 O          58.4463   78.7885   14.5219 O.3     1  UNL1       -0.3508
     38 C          59.6713   77.9344   14.3798 C.3     1  UNL1        0.1595
     39 C          61.0065   78.5728   14.1356 C.3     1  UNL1        0.1046
@<TRIPOS>BOND
     1     1     2    1
     2     2     3   ar
     3     3     4   ar
     4     4     5   ar
     5     5     6   ar
     6     6     7   ar
     7     7     8   ar
     8     8    13    1
     9    13    14   ar
    10    14    15   ar
    11    15    16   ar
    12    16    17   ar
    13    17    18   ar
    14    18    19   ar
    15    19    23    1
    16    23    24   ar
    17    24    25   ar
    18    25    26   ar
    19    26    27   ar
    20    27    28   ar
    21    19    20   ar
    22    20    21   ar
    23    21    22   ar
    24     8     9   ar
    25     9    10   ar
    26    29    10    1
    27    29    30    1
    28    30    31    1
    29    31    33    1
    30    33    34    1
    31    34    35    1
    32    35    36    1
    33    36    37    1
    34    37    38    1
    35    38    39    1
    36    31    32    1
    37     7     2   ar
    38    22    13   ar
    39    32    29    1
    40    10     6   ar
    41    39    34    1
    42    21    16   ar
    43    28    23   ar
    44     1    11    1
    45     1    12    1
@<TRIPOS>MOLECULE
*****
 39 45 0 0 0
SMALL
GASTEIGER

@<TRIPOS>ATOM
      1 N          60.0491   86.5730    7.5570 N.pl3   1  UNL1       -0.3414
      2 C          60.8538   86.5589    8.8228 C.ar    1  UNL1        0.1432
      3 N          61.2403   85.2529    9.4513 N.ar    1  UNL1       -0.2265
      4 C          62.0451   85.2389   10.7171 C.ar    1  UNL1        0.1193
      5 C          62.4633   86.5308   11.3543 C.ar    1  UNL1        0.1020
      6 N          62.0768   87.8367   10.7258 N.ar    1  UNL1       -0.2885
      7 C          61.2721   87.8508    9.4600 C.ar    1  UNL1        0.1141
      8 C          61.0408   89.2817    9.0736 C.ar    1  UNL1        0.1014
      9 N          61.7027   90.1519   10.1006 N.ar    1  UNL1       -0.2305
     10 C          62.3429   89.2589   11.1217 C.ar    1  UNL1        0.1239
     11 H          59.7746   85.7251    7.1388 H       1  UNL1        0.1438
     12 H          59.7954   87.4302    7.1445 H       1  UNL1        0.1438
     13 C          60.2811   89.7585    7.8713 C.ar    1  UNL1        0.0207
     14 C          58.8279   89.4195    7.7194 C.ar    1  UNL1        0.0016
     15 C          58.0682   89.8964    6.5172 C.ar    1  UNL1        0.0015
     16 C          58.7618   90.7122    5.4667 C.ar    1  UNL1        0.0177
     17 C          58.0021   91.1890    4.2644 C.ar    1  UNL1        0.0030
     18 C          58.6957   92.0048    3.2140 C.ar    1  UNL1        0.0191
     19 C          60.1491   92.3438    3.3659 C.ar    1  UNL1        0.0812
     20 N          60.9087   91.8670    4.5682 N.ar    1  UNL1       -0.2454
     21 C          60.2151   91.0512    5.6186 C.ar    1  UNL1        0.0813
     22 C          60.9747   90.5743    6.8209 C.ar    1  UNL1        0.0206
     23 C          60.8427   93.1596    2.3155 C.ar    1  UNL1        0.0176
     24 C          60.2691   94.4789    1.8904 C.ar    1  UNL1        0.0015
     25 C          60.9627   95.2947    0.8400 C.ar    1  UNL1        0.0000
     26 C          62.2299   94.7912    0.2147 C.ar    1  UNL1        0.0000
     27 C          62.8034   93.4720    0.6398 C.ar    1  UNL1        0.0000
     28 C          62.1098   92.6562    1.6903 C.ar    1  UNL1        0.0015
     29 C          63.1140   89.7090   12.3271 C.3     1  UNL1        0.0573
     30 C          63.8365   89.0156   13.4438 C.3     1  UNL1        0.0089
     31 C          64.2043   90.3456   14.0317 C.3     1  UNL1        0.0168
     32 C          63.4819   91.0391   12.9150 C.3     1  UNL1        0.0089
     33 C          64.9754   90.7958   15.2371 C.3     1  UNL1        0.0722
     34 N          66.2356   91.5913   15.0672 N.3     1  UNL1       -0.2685
     35 C          66.6233   92.6112   16.0966 C.3     1  UNL1        0.1046
     36 C          67.8836   93.4067   15.9267 C.3     1  UNL1        0.1595
     37 O          68.7562   93.1823   14.7275 O.3     1  UNL1       -0.3508
     38 C          68.3685   92.1624   13.6982 C.3     1  UNL1        0.1595
     39 C          67.1083   91.3669   13.8681 C.3     1  UNL1        0.1046
@<TRIPOS>BOND
     1     1     2    1
     2     2     3   ar
     3     3     4   ar
     4     4     5   ar
     5     5     6   ar
     6     6     7   ar
     7     7     8   ar
     8     8    13    1
     9    13    14   ar
    10    14    15   ar
    11    15    16   ar
    12    16    17   ar
    13    17    18   ar
    14    18    19   ar
    15    19    23    1
    16    23    24   ar
    17    24    25   ar
    18    25    26   ar
    19    26    27   ar
    20    27    28   ar
    21    19    20   ar
    22    20    21   ar
    23    21    22   ar
    24     8     9   ar
    25     9    10   ar
    26    29    10    1
    27    29    30    1
    28    30    31    1
    29    31    33    1
    30    33    34    1
    31    34    35    1
    32    35    36    1
    33    36    37    1
    34    37    38    1
    35    38    39    1
    36    31    32    1
    37     7     2   ar
    38    22    13   ar
    39    32    29    1
    40    10     6   ar
    41    39    34    1
    42    21    16   ar
    43    28    23   ar
    44     1    11    1
    45     1    12    1
@<TRIPOS>MOLECULE
*****
 39 45 0 0 0
SMALL
GASTEIGER

@<TRIPOS>ATOM
      1 N          59.4714   87.1629    6.6591 N.pl3   1  UNL1       -0.3414
      2 C          60.1653   87.0162    7.9809 C.ar    1  UNL1        0.1432
      3 N          60.2919   85.6629    8.6154 N.ar    1  UNL1       -0.2265
      4 C          60.9857   85.5162    9.9371 C.ar    1  UNL1        0.1193
      5 C          61.5530   86.7229   10.6243 C.ar    1  UNL1        0.1020
      6 N          61.4264   88.0761    9.9898 N.ar    1  UNL1       -0.2885
      7 C          60.7325   88.2228    8.6681 C.ar    1  UNL1        0.1141
      8 C          60.7601   89.6738    8.2886 C.ar    1  UNL1        0.1014
      9 N          61.4709   90.4238    9.3758 N.ar    1  UNL1       -0.2305
     10 C          61.8828   89.4365   10.4272 C.ar    1  UNL1        0.1239
     11 H          59.0991   86.3710    6.2081 H       1  UNL1        0.1438
     12 H          59.3883   88.0511    6.2427 H       1  UNL1        0.1438
     13 C          60.1787   90.2699    7.0409 C.ar    1  UNL1        0.0207
     14 C          58.6907   90.3358    6.8640 C.ar    1  UNL1        0.0016
     15 C          58.1094   90.9320    5.6164 C.ar    1  UNL1        0.0015
     16 C          59.0162   91.4623    4.5456 C.ar    1  UNL1        0.0177
     17 C          58.4349   92.0585    3.2979 C.ar    1  UNL1        0.0030
     18 C          59.3416   92.5888    2.2271 C.ar    1  UNL1        0.0191
     19 C          60.8298   92.5229    2.4041 C.ar    1  UNL1        0.0812
     20 N          61.4110   91.9267    3.6517 N.ar    1  UNL1       -0.2454
     21 C          60.5042   91.3964    4.7225 C.ar    1  UNL1        0.0813
     22 C          61.0855   90.8003    5.9701 C.ar    1  UNL1        0.0206
     23 C          61.7366   93.0532    1.3333 C.ar    1  UNL1        0.0176
     24 C          61.2159   93.2533   -0.0592 C.ar    1  UNL1        0.0015
     25 C          62.1227   93.7836   -1.1299 C.ar    1  UNL1        0.0000
     26 C          63.5501   94.1138   -0.8082 C.ar    1  UNL1        0.0000
     27 C          64.0707   93.9138    0.5843 C.ar    1  UNL1        0.0000
     28 C          63.1639   93.3834    1.6550 C.ar    1  UNL1        0.0015
     29 C          62.6213   89.7537   11.6937 C.3     1  UNL1        0.0573
     30 C          63.3777   88.9507   12.7101 C.3     1  UNL1        0.0089
     31 C          63.6658   90.2024   13.4847 C.3     1  UNL1        0.0168
     32 C          62.9094   91.0055   12.4684 C.3     1  UNL1        0.0089
     33 C          64.4043   90.5196   14.7512 C.3     1  UNL1        0.0722
     34 N          65.6115   91.4091   14.7127 N.3     1  UNL1       -0.2685
     35 C          66.4315   91.5068   13.4604 C.3     1  UNL1        0.1046
     36 C          67.6388   92.3963   13.4219 C.3     1  UNL1        0.1595
     37 O          68.0261   93.1880   14.6357 O.3     1  UNL1       -0.3508
     38 C          67.2060   93.0902   15.8879 C.3     1  UNL1        0.1595
     39 C          65.9988   92.2007   15.9264 C.3     1  UNL1        0.1046
@<TRIPOS>BOND
     1     1     2    1
     2     2     3   ar
     3     3     4   ar
     4     4     5   ar
     5     5     6   ar
     6     6     7   ar
     7     7     8   ar
     8     8    13    1
     9    13    14   ar
    10    14    15   ar
    11    15    16   ar
    12    16    17   ar
    13    17    18   ar
    14    18    19   ar
    15    19    23    1
    16    23    24   ar
    17    24    25   ar
    18    25    26   ar
    19    26    27   ar
    20    27    28   ar
    21    19    20   ar
    22    20    21   ar
    23    21    22   ar
    24     8     9   ar
    25     9    10   ar
    26    29    10    1
    27    29    30    1
    28    30    31    1
    29    31    33    1
    30    33    34    1
    31    34    35    1
    32    35    36    1
    33    36    37    1
    34    37    38    1
    35    38    39    1
    36    31    32    1
    37     7     2   ar
    38    22    13   ar
    39    32    29    1
    40    10     6   ar
    41    39    34    1
    42    21    16   ar
    43    28    23   ar
    44     1    11    1
    45     1    12    1
@<TRIPOS>MOLECULE
*****
 39 45 0 0 0
SMALL
GASTEIGER

@<TRIPOS>ATOM
      1 N          63.5377   89.6898   17.1997 N.pl3   1  UNL1       -0.3414
      2 C          63.1911   88.3043   16.7411 C.ar    1  UNL1        0.1432
      3 N          62.4880   87.3604   17.6710 N.ar    1  UNL1       -0.2265
      4 C          62.1414   85.9750   17.2125 C.ar    1  UNL1        0.1193
      5 C          62.4979   85.5334   15.8239 C.ar    1  UNL1        0.1020
      6 N          63.2009   86.4773   14.8940 N.ar    1  UNL1       -0.2885
      7 C          63.5475   87.8628   15.3526 C.ar    1  UNL1        0.1141
      8 C          64.2364   88.5667   14.2213 C.ar    1  UNL1        0.1014
      9 N          64.3155   87.6163   13.0635 N.ar    1  UNL1       -0.2305
     10 C          63.6756   86.3250   13.4792 C.ar    1  UNL1        0.1239
     11 H          63.3037   89.9796   18.1110 H       1  UNL1        0.1438
     12 H          63.9991   90.3093   16.5893 H       1  UNL1        0.1438
     13 C          64.7551   89.9741   14.2438 C.ar    1  UNL1        0.0207
     14 C          65.1230   90.6170   15.5481 C.ar    1  UNL1        0.0016
     15 C          65.6417   92.0242   15.5706 C.ar    1  UNL1        0.0015
     16 C          65.7924   92.7886   14.2888 C.ar    1  UNL1        0.0177
     17 C          66.3111   94.1959   14.3114 C.ar    1  UNL1        0.0030
     18 C          66.4618   94.9603   13.0296 C.ar    1  UNL1        0.0191
     19 C          66.0938   94.3174   11.7252 C.ar    1  UNL1        0.0812
     20 N          65.5752   92.9101   11.7027 N.ar    1  UNL1       -0.2454
     21 C          65.4244   92.1457   12.9845 C.ar    1  UNL1        0.0813
     22 C          64.9058   90.7385   12.9620 C.ar    1  UNL1        0.0206
     23 C          66.2445   95.0817   10.4434 C.ar    1  UNL1        0.0176
     24 C          67.4309   94.8364    9.5589 C.ar    1  UNL1        0.0015
     25 C          67.5816   95.6007    8.2771 C.ar    1  UNL1        0.0000
     26 C          66.5459   96.6105    7.8798 C.ar    1  UNL1        0.0000
     27 C          65.3596   96.8558    8.7643 C.ar    1  UNL1        0.0000
     28 C          65.2089   96.0914   10.0461 C.ar    1  UNL1        0.0015
     29 C          63.5350   85.0969   12.6294 C.3     1  UNL1        0.0573
     30 C          62.6141   84.6714   11.5245 C.3     1  UNL1        0.0089
     31 C          63.3362   83.3602   11.4277 C.3     1  UNL1        0.0168
     32 C          64.2570   83.7857   12.5326 C.3     1  UNL1        0.0089
     33 C          63.1955   82.1322   10.5779 C.3     1  UNL1        0.0722
     34 N          62.9140   80.8052   11.2182 N.3     1  UNL1       -0.2685
     35 C          62.8836   79.5603   10.3819 C.3     1  UNL1        0.1046
     36 C          62.6020   78.2334   11.0222 C.3     1  UNL1        0.1595
     37 O          62.3508   78.1513   12.4987 O.3     1  UNL1       -0.3508
     38 C          62.3812   79.3963   13.3349 C.3     1  UNL1        0.1595
     39 C          62.6628   80.7232   12.6946 C.3     1  UNL1        0.1046
@<TRIPOS>BOND
     1     1     2    1
     2     2     3   ar
     3     3     4   ar
     4     4     5   ar
     5     5     6   ar
     6     6     7   ar
     7     7     8   ar
     8     8    13    1
     9    13    14   ar
    10    14    15   ar
    11    15    16   ar
    12    16    17   ar
    13    17    18   ar
    14    18    19   ar
    15    19    23    1
    16    23    24   ar
    17    24    25   ar
    18    25    26   ar
    19    26    27   ar
    20    27    28   ar
    21    19    20   ar
    22    20    21   ar
    23    21    22   ar
    24     8     9   ar
    25     9    10   ar
    26    29    10    1
    27    29    30    1
    28    30    31    1
    29    31    33    1
    30    33    34    1
    31    34    35    1
    32    35    36    1
    33    36    37    1
    34    37    38    1
    35    38    39    1
    36    31    32    1
    37     7     2   ar
    38    22    13   ar
    39    32    29    1
    40    10     6   ar
    41    39    34    1
    42    21    16   ar
    43    28    23   ar
    44     1    11    1
    45     1    12    1
@<TRIPOS>MOLECULE
*****
 39 45 0 0 0
SMALL
GASTEIGER

@<TRIPOS>ATOM
      1 N          60.6210   91.2440    9.8899 N.pl3   1  UNL1       -0.3414
      2 C          61.3235   90.1145   10.5833 C.ar    1  UNL1        0.1432
      3 N          61.9385   90.3304   11.9343 N.ar    1  UNL1       -0.2265
      4 C          62.6410   89.2010   12.6278 C.ar    1  UNL1        0.1193
      5 C          62.7285   87.8556   11.9701 C.ar    1  UNL1        0.1020
      6 N          62.1136   87.6398   10.6192 N.ar    1  UNL1       -0.2885
      7 C          61.4111   88.7692    9.9258 C.ar    1  UNL1        0.1141
      8 C          60.9044   88.2610    8.6086 C.ar    1  UNL1        0.1014
      9 N          61.2937   86.8175    8.4879 N.ar    1  UNL1       -0.2305
     10 C          62.0411   86.4335    9.7305 C.ar    1  UNL1        0.1239
     11 H          60.5635   92.1269   10.3215 H       1  UNL1        0.1438
     12 H          60.2174   91.1022    9.0032 H       1  UNL1        0.1438
     13 C          60.1421   89.0567    7.5907 C.ar    1  UNL1        0.0207
     14 C          58.6438   88.9949    7.5592 C.ar    1  UNL1        0.0016
     15 C          57.8816   89.7906    6.5414 C.ar    1  UNL1        0.0015
     16 C          58.6178   90.6480    5.5551 C.ar    1  UNL1        0.0177
     17 C          57.8555   91.4437    4.5373 C.ar    1  UNL1        0.0030
     18 C          58.5917   92.3011    3.5509 C.ar    1  UNL1        0.0191
     19 C          60.0902   92.3628    3.5824 C.ar    1  UNL1        0.0812
     20 N          60.8523   91.5672    4.6002 N.ar    1  UNL1       -0.2454
     21 C          60.1161   90.7098    5.5866 C.ar    1  UNL1        0.0813
     22 C          60.8783   89.9141    6.6044 C.ar    1  UNL1        0.0206
     23 C          60.8264   93.2203    2.5961 C.ar    1  UNL1        0.0176
     24 C          60.1859   94.4667    2.0610 C.ar    1  UNL1        0.0015
     25 C          60.9221   95.3241    1.0746 C.ar    1  UNL1        0.0000
     26 C          62.2988   94.9351    0.6235 C.ar    1  UNL1        0.0000
     27 C          62.9392   93.6887    1.1586 C.ar    1  UNL1        0.0000
     28 C          62.2030   92.8313    2.1449 C.ar    1  UNL1        0.0015
     29 C          62.6151   85.0808   10.0316 C.3     1  UNL1        0.0573
     30 C          63.4859   84.1093    9.2913 C.3     1  UNL1        0.0089
     31 C          63.4269   83.1678   10.4575 C.3     1  UNL1        0.0168
     32 C          62.5561   84.1392   11.1978 C.3     1  UNL1        0.0089
     33 C          64.0009   81.8150   10.7586 C.3     1  UNL1        0.0722
     34 N          63.6284   81.1078   12.0278 N.3     1  UNL1       -0.2685
     35 C          62.6940   79.9350   11.9865 C.3     1  UNL1        0.1046
     36 C          62.3214   79.2278   13.2557 C.3     1  UNL1        0.1595
     37 O          62.8833   79.6933   14.5664 O.3     1  UNL1       -0.3508
     38 C          63.8176   80.8660   14.6076 C.3     1  UNL1        0.1595
     39 C          64.1901   81.5733   13.3384 C.3     1  UNL1        0.1046
@<TRIPOS>BOND
     1     1     2    1
     2     2     3   ar
     3     3     4   ar
     4     4     5   ar
     5     5     6   ar
     6     6     7   ar
     7     7     8   ar
     8     8    13    1
     9    13    14   ar
    10    14    15   ar
    11    15    16   ar
    12    16    17   ar
    13    17    18   ar
    14    18    19   ar
    15    19    23    1
    16    23    24   ar
    17    24    25   ar
    18    25    26   ar
    19    26    27   ar
    20    27    28   ar
    21    19    20   ar
    22    20    21   ar
    23    21    22   ar
    24     8     9   ar
    25     9    10   ar
    26    29    10    1
    27    29    30    1
    28    30    31    1
    29    31    33    1
    30    33    34    1
    31    34    35    1
    32    35    36    1
    33    36    37    1
    34    37    38    1
    35    38    39    1
    36    31    32    1
    37     7     2   ar
    38    22    13   ar
    39    32    29    1
    40    10     6   ar
    41    39    34    1
    42    21    16   ar
    43    28    23   ar
    44     1    11    1
    45     1    12    1
@<TRIPOS>MOLECULE
*****
 39 45 0 0 0
SMALL
GASTEIGER

@<TRIPOS>ATOM
      1 N          59.3803   87.2542    5.8017 N.pl3   1  UNL1       -0.3414
      2 C          59.9713   86.9259    7.1407 C.ar    1  UNL1        0.1432
      3 N          60.0233   85.5018    7.6088 N.ar    1  UNL1       -0.2265
      4 C          60.6143   85.1735    8.9478 C.ar    1  UNL1        0.1193
      5 C          61.1531   86.2695    9.8188 C.ar    1  UNL1        0.1020
      6 N          61.1011   87.6935    9.3507 N.ar    1  UNL1       -0.2885
      7 C          60.5101   88.0218    8.0117 C.ar    1  UNL1        0.1141
      8 C          60.5948   89.5070    7.8191 C.ar    1  UNL1        0.1014
      9 N          61.2381   90.0967    9.0392 N.ar    1  UNL1       -0.2305
     10 C          61.5510   88.9759    9.9857 C.ar    1  UNL1        0.1239
     11 H          59.0266   86.5349    5.2300 H       1  UNL1        0.1438
     12 H          59.3462   88.1889    5.4945 H       1  UNL1        0.1438
     13 C          60.1196   90.2688    6.6175 C.ar    1  UNL1        0.0207
     14 C          58.6560   90.5391    6.4314 C.ar    1  UNL1        0.0016
     15 C          58.1809   91.3009    5.2298 C.ar    1  UNL1        0.0015
     16 C          59.1694   91.7923    4.2142 C.ar    1  UNL1        0.0177
     17 C          58.6942   92.5540    3.0125 C.ar    1  UNL1        0.0030
     18 C          59.6827   93.0454    1.9969 C.ar    1  UNL1        0.0191
     19 C          61.1464   92.7750    2.1830 C.ar    1  UNL1        0.0812
     20 N          61.6215   92.0133    3.3847 N.ar    1  UNL1       -0.2454
     21 C          60.6330   91.5219    4.4002 C.ar    1  UNL1        0.0813
     22 C          61.1081   90.7602    5.6019 C.ar    1  UNL1        0.0206
     23 C          62.1349   93.2664    1.1675 C.ar    1  UNL1        0.0176
     24 C          63.5703   93.4672    1.5540 C.ar    1  UNL1        0.0015
     25 C          64.5588   93.9586    0.5384 C.ar    1  UNL1        0.0000
     26 C          64.1119   94.2492   -0.8637 C.ar    1  UNL1        0.0000
     27 C          62.6765   94.0484   -1.2502 C.ar    1  UNL1        0.0000
     28 C          61.6880   93.5570   -0.2346 C.ar    1  UNL1        0.0015
     29 C          62.1999   89.1134   11.3312 C.3     1  UNL1        0.0573
     30 C          62.1718   90.1425   12.4221 C.3     1  UNL1        0.0089
     31 C          63.1175   89.3077   13.2338 C.3     1  UNL1        0.0168
     32 C          63.1455   88.2786   12.1429 C.3     1  UNL1        0.0089
     33 C          63.7664   89.4451   14.5792 C.3     1  UNL1        0.0722
     34 N          63.6213   88.3529   15.5970 N.3     1  UNL1       -0.2685
     35 C          64.1076   86.9683   15.2859 C.3     1  UNL1        0.1046
     36 C          63.9625   85.8761   16.3036 C.3     1  UNL1        0.1595
     37 O          63.3310   86.1682   17.6325 O.3     1  UNL1       -0.3508
     38 C          62.8448   87.5527   17.9436 C.3     1  UNL1        0.1595
     39 C          62.9899   88.6450   16.9258 C.3     1  UNL1        0.1046
@<TRIPOS>BOND
     1     1     2    1
     2     2     3   ar
     3     3     4   ar
     4     4     5   ar
     5     5     6   ar
     6     6     7   ar
     7     7     8   ar
     8     8    13    1
     9    13    14   ar
    10    14    15   ar
    11    15    16   ar
    12    16    17   ar
    13    17    18   ar
    14    18    19   ar
    15    19    23    1
    16    23    24   ar
    17    24    25   ar
    18    25    26   ar
    19    26    27   ar
    20    27    28   ar
    21    19    20   ar
    22    20    21   ar
    23    21    22   ar
    24     8     9   ar
    25     9    10   ar
    26    29    10    1
    27    29    30    1
    28    30    31    1
    29    31    33    1
    30    33    34    1
    31    34    35    1
    32    35    36    1
    33    36    37    1
    34    37    38    1
    35    38    39    1
    36    31    32    1
    37     7     2   ar
    38    22    13   ar
    39    32    29    1
    40    10     6   ar
    41    39    34    1
    42    21    16   ar
    43    28    23   ar
    44     1    11    1
    45     1    12    1
