@<TRIPOS>MOLECULE
*****
 32 35 0 0 0
SMALL
GASTEIGER

@<TRIPOS>ATOM
      1 C          64.9650   90.7044   13.9352 C.ar    1  UNL1        0.0054
      2 C          64.6536   89.3354   14.4631 C.ar    1  UNL1        0.0003
      3 C          63.7722   88.4109   13.6766 C.ar    1  UNL1        0.0027
      4 C          63.2023   88.8555   12.3623 C.ar    1  UNL1        0.0311
      5 C          62.3209   87.9310   11.5758 C.ar    1  UNL1        0.0523
      6 C          61.7510   88.3756   10.2614 C.ar    1  UNL1        0.0465
      7 C          62.0624   89.7447    9.7336 C.ar    1  UNL1        0.1011
      8 N          62.9438   90.6692   10.5201 N.ar    1  UNL1       -0.2437
      9 C          63.5137   90.2246   11.8344 C.ar    1  UNL1        0.0825
     10 C          64.3950   91.1490   12.6209 C.ar    1  UNL1        0.0193
     11 C          67.9428   91.7176   13.0658 C.3     1  UNL1        0.0556
     12 C          67.2151   92.0946   14.3220 C.ar    1  UNL1        0.1006
     13 N          67.7284   93.0036   15.3992 N.ar    1  UNL1       -0.0817
     14 O          66.6768   93.0997   16.4647 O.2     1  UNL1       -0.3581
     15 C          65.5137   92.2501   16.0459 C.ar    1  UNL1        0.1544
     16 C          64.2413   92.0558   16.8161 C.3     1  UNL1        0.0754
     17 C          65.8464   91.6290   14.7217 C.ar    1  UNL1        0.0497
     18 C          60.8696   87.4512    9.4750 C.2     1  UNL1        0.0756
     19 O          61.3546   86.8758    8.1774 O.co2   1  UNL1       -0.5445
     20 O          59.5032   87.1020    9.9861 O.co2   1  UNL1       -0.5445
     21 N          62.0095   86.5620   12.1037 N.pl3   1  UNL1       -0.3127
     22 H          61.2823   86.4395   12.7559 H       1  UNL1        0.1522
     23 C          62.8060   85.3794   11.6377 C.ar    1  UNL1        0.0442
     24 C          62.9217   85.0836   10.1718 C.ar    1  UNL1        0.0143
     25 C          63.7182   83.9010    9.7058 C.ar    1  UNL1        0.0013
     26 C          64.3990   83.0142   10.7059 C.ar    1  UNL1       -0.0002
     27 C          64.2834   83.3100   12.1719 C.ar    1  UNL1       -0.0031
     28 C          63.4869   84.4926   12.6378 C.ar    1  UNL1       -0.0094
     29 C          63.3712   84.7884   14.1038 C.3     1  UNL1        0.0201
     30 C          62.0453   84.0879   14.1405 C.3     1  UNL1        0.0044
     31 C          64.6970   85.4890   14.0671 C.3     1  UNL1        0.0044
     32 C          63.2555   85.0842   15.5697 C.3     1  UNL1        0.0044
@<TRIPOS>UNITY_ATOM_ATTR
19 1
charge -1
@<TRIPOS>BOND
     1    11    12    1
     2    12    13   ar
     3    13    14   ar
     4    14    15   ar
     5    15    16    1
     6    15    17   ar
     7    17     1    1
     8     1     2   ar
     9     2     3   ar
    10     3     4   ar
    11     4     5   ar
    12     5    21    1
    13    21    23    1
    14    23    24   ar
    15    24    25   ar
    16    25    26   ar
    17    26    27   ar
    18    27    28   ar
    19    28    29    1
    20    29    30    1
    21    29    31    1
    22    29    32    1
    23     5     6   ar
    24     6    18    1
    25    18    19   ar
    26    18    20   ar
    27     6     7   ar
    28     7     8   ar
    29     8     9   ar
    30     9    10   ar
    31    17    12   ar
    32    10     1   ar
    33     9     4   ar
    34    28    23   ar
    35    21    22    1
@<TRIPOS>MOLECULE
*****
 32 35 0 0 0
SMALL
GASTEIGER

@<TRIPOS>ATOM
      1 C          62.3196   89.0074   10.6430 C.ar    1  UNL1        0.0054
      2 C          62.7150   90.3039   10.0006 C.ar    1  UNL1        0.0003
      3 C          63.5973   91.2676   10.7374 C.ar    1  UNL1        0.0027
      4 C          64.0842   90.9347   12.1165 C.ar    1  UNL1        0.0311
      5 C          64.9666   91.8984   12.8533 C.ar    1  UNL1        0.0523
      6 C          65.4535   91.5655   14.2325 C.ar    1  UNL1        0.0465
      7 C          65.0581   90.2689   14.8749 C.ar    1  UNL1        0.1011
      8 N          64.1757   89.3053   14.1381 N.ar    1  UNL1       -0.2437
      9 C          63.6888   89.6382   12.7589 C.ar    1  UNL1        0.0825
     10 C          62.8065   88.6746   12.0221 C.ar    1  UNL1        0.0193
     11 C          59.9439   89.7972    8.5496 C.3     1  UNL1        0.0556
     12 C          60.3452   88.4067    8.9440 C.ar    1  UNL1        0.1006
     13 N          59.7251   87.1352    8.4454 N.ar    1  UNL1       -0.0817
     14 O          60.4338   85.9863    9.0995 O.2     1  UNL1       -0.3581
     15 C          61.4919   86.5478   10.0023 C.ar    1  UNL1        0.1544
     16 C          62.4386   85.7529   10.8520 C.3     1  UNL1        0.0754
     17 C          61.4372   88.0437    9.9062 C.ar    1  UNL1        0.0497
     18 C          66.3359   92.5291   14.9692 C.2     1  UNL1        0.0756
     19 O          67.4539   93.2233   14.2494 O.co2   1  UNL1       -0.5445
     20 O          66.1002   92.7986   16.4259 O.co2   1  UNL1       -0.5445
     21 N          65.3620   93.1949   12.2109 N.pl3   1  UNL1       -0.3127
     22 H          64.9042   94.0291   12.4634 H       1  UNL1        0.1522
     23 C          66.4549   93.2204   11.1838 C.ar    1  UNL1        0.0442
     24 C          67.3288   92.0171   10.9885 C.ar    1  UNL1        0.0143
     25 C          68.4217   92.0426    9.9613 C.ar    1  UNL1        0.0013
     26 C          68.6406   93.2714    9.1295 C.ar    1  UNL1       -0.0002
     27 C          67.7666   94.4748    9.3247 C.ar    1  UNL1       -0.0031
     28 C          66.6737   94.4493   10.3519 C.ar    1  UNL1       -0.0094
     29 C          65.7998   95.6526   10.5471 C.3     1  UNL1        0.0201
     30 C          66.4285   95.8916   11.8879 C.3     1  UNL1        0.0044
     31 C          65.1711   95.4136    9.2064 C.3     1  UNL1        0.0044
     32 C          64.9258   96.8559   10.7424 C.3     1  UNL1        0.0044
@<TRIPOS>UNITY_ATOM_ATTR
19 1
charge -1
@<TRIPOS>BOND
     1    11    12    1
     2    12    13   ar
     3    13    14   ar
     4    14    15   ar
     5    15    16    1
     6    15    17   ar
     7    17     1    1
     8     1     2   ar
     9     2     3   ar
    10     3     4   ar
    11     4     5   ar
    12     5    21    1
    13    21    23    1
    14    23    24   ar
    15    24    25   ar
    16    25    26   ar
    17    26    27   ar
    18    27    28   ar
    19    28    29    1
    20    29    30    1
    21    29    31    1
    22    29    32    1
    23     5     6   ar
    24     6    18    1
    25    18    19   ar
    26    18    20   ar
    27     6     7   ar
    28     7     8   ar
    29     8     9   ar
    30     9    10   ar
    31    17    12   ar
    32    10     1   ar
    33     9     4   ar
    34    28    23   ar
    35    21    22    1
@<TRIPOS>MOLECULE
*****
 32 35 0 0 0
SMALL
GASTEIGER

@<TRIPOS>ATOM
      1 C          61.7582   87.0738    9.8406 C.ar    1  UNL1        0.0054
      2 C          62.4599   86.1860   10.8251 C.ar    1  UNL1        0.0003
      3 C          63.1799   86.7864   11.9960 C.ar    1  UNL1        0.0027
      4 C          63.1982   88.2746   12.1824 C.ar    1  UNL1        0.0311
      5 C          63.9183   88.8750   13.3534 C.ar    1  UNL1        0.0523
      6 C          63.9365   90.3633   13.5398 C.ar    1  UNL1        0.0465
      7 C          63.2347   91.2511   12.5553 C.ar    1  UNL1        0.1011
      8 N          62.5147   90.6507   11.3844 N.ar    1  UNL1       -0.2437
      9 C          62.4964   89.1625   11.1980 C.ar    1  UNL1        0.0825
     10 C          61.7764   88.5621   10.0271 C.ar    1  UNL1        0.0193
     11 C          62.9564   84.8290    7.7974 C.3     1  UNL1        0.0556
     12 C          61.5889   85.4416    7.7305 C.ar    1  UNL1        0.1006
     13 N          60.5320   85.1300    6.7127 N.ar    1  UNL1       -0.0817
     14 O          59.3280   85.9692    7.0228 O.2     1  UNL1       -0.3581
     15 C          59.6408   86.7995    8.2323 C.ar    1  UNL1        0.1544
     16 C          58.7183   87.7831    8.8891 C.3     1  UNL1        0.0754
     17 C          61.0381   86.4734    8.6697 C.ar    1  UNL1        0.0497
     18 C          64.6565   90.9637   14.7107 C.2     1  UNL1        0.0756
     19 O          66.1520   90.8821   14.7937 O.co2   1  UNL1       -0.5445
     20 O          63.8811   91.6457   15.7987 O.co2   1  UNL1       -0.5445
     21 N          64.6200   87.9872   14.3379 N.pl3   1  UNL1       -0.3127
     22 H          65.5669   87.7540   14.2026 H       1  UNL1        0.1522
     23 C          63.8791   87.4545   15.5284 C.ar    1  UNL1        0.0442
     24 C          63.3159   88.4012   16.5464 C.ar    1  UNL1        0.0143
     25 C          62.5750   87.8686   17.7369 C.ar    1  UNL1        0.0013
     26 C          62.3973   86.3892   17.9094 C.ar    1  UNL1       -0.0002
     27 C          62.9606   85.4424   16.8914 C.ar    1  UNL1       -0.0031
     28 C          63.7015   85.9750   15.7009 C.ar    1  UNL1       -0.0094
     29 C          64.2647   85.0283   14.6828 C.3     1  UNL1        0.0201
     30 C          62.8890   84.4906   14.4217 C.3     1  UNL1        0.0044
     31 C          65.6405   85.5660   14.9440 C.3     1  UNL1        0.0044
     32 C          64.8280   84.0816   13.6648 C.3     1  UNL1        0.0044
@<TRIPOS>UNITY_ATOM_ATTR
19 1
charge -1
@<TRIPOS>BOND
     1    11    12    1
     2    12    13   ar
     3    13    14   ar
     4    14    15   ar
     5    15    16    1
     6    15    17   ar
     7    17     1    1
     8     1     2   ar
     9     2     3   ar
    10     3     4   ar
    11     4     5   ar
    12     5    21    1
    13    21    23    1
    14    23    24   ar
    15    24    25   ar
    16    25    26   ar
    17    26    27   ar
    18    27    28   ar
    19    28    29    1
    20    29    30    1
    21    29    31    1
    22    29    32    1
    23     5     6   ar
    24     6    18    1
    25    18    19   ar
    26    18    20   ar
    27     6     7   ar
    28     7     8   ar
    29     8     9   ar
    30     9    10   ar
    31    17    12   ar
    32    10     1   ar
    33     9     4   ar
    34    28    23   ar
    35    21    22    1
@<TRIPOS>MOLECULE
*****
 32 35 0 0 0
SMALL
GASTEIGER

@<TRIPOS>ATOM
      1 C          61.7669   87.0907    9.8627 C.ar    1  UNL1        0.0054
      2 C          62.4657   86.2011   10.8477 C.ar    1  UNL1        0.0003
      3 C          63.1872   86.7997   12.0185 C.ar    1  UNL1        0.0027
      4 C          63.2100   88.2879   12.2044 C.ar    1  UNL1        0.0311
      5 C          63.9315   88.8866   13.3754 C.ar    1  UNL1        0.0523
      6 C          63.9543   90.3748   13.5613 C.ar    1  UNL1        0.0465
      7 C          63.2555   91.2645   12.5762 C.ar    1  UNL1        0.1011
      8 N          62.5340   90.6658   11.4053 N.ar    1  UNL1       -0.2437
      9 C          62.5112   89.1776   11.2194 C.ar    1  UNL1        0.0825
     10 C          61.7897   88.5789   10.0486 C.ar    1  UNL1        0.0193
     11 C          58.7289   87.8077    8.9109 C.3     1  UNL1        0.0556
     12 C          59.6489   86.8216    8.2542 C.ar    1  UNL1        0.1006
     13 N          59.3341   85.9920    7.0449 N.ar    1  UNL1       -0.0817
     14 O          60.5360   85.1497    6.7348 O.2     1  UNL1       -0.3581
     15 C          61.5936   85.4588    7.7527 C.ar    1  UNL1        0.1544
     16 C          62.9596   84.8427    7.8197 C.3     1  UNL1        0.0754
     17 C          61.0454   86.4921    8.6917 C.ar    1  UNL1        0.0497
     18 C          64.6758   90.9735   14.7321 C.2     1  UNL1        0.0756
     19 O          63.9022   91.6582   15.8196 O.co2   1  UNL1       -0.5445
     20 O          66.1711   90.8874   14.8156 O.co2   1  UNL1       -0.5445
     21 N          64.6303   87.9969   14.3604 N.pl3   1  UNL1       -0.3127
     22 H          65.5774   87.7633   14.2271 H       1  UNL1        0.1522
     23 C          63.8861   87.4632   15.5483 C.ar    1  UNL1        0.0442
     24 C          63.3272   88.4086   16.5700 C.ar    1  UNL1        0.0143
     25 C          62.5831   87.8748   17.7580 C.ar    1  UNL1        0.0013
     26 C          62.3978   86.3956   17.9243 C.ar    1  UNL1       -0.0002
     27 C          62.9567   85.4502   16.9026 C.ar    1  UNL1       -0.0031
     28 C          63.7008   85.9839   15.7146 C.ar    1  UNL1       -0.0094
     29 C          64.2597   85.0385   14.6930 C.3     1  UNL1        0.0201
     30 C          65.6370   85.5733   14.9516 C.3     1  UNL1        0.0044
     31 C          62.8824   84.5037   14.4344 C.3     1  UNL1        0.0044
     32 C          64.8186   84.0931   13.6713 C.3     1  UNL1        0.0044
@<TRIPOS>UNITY_ATOM_ATTR
19 1
charge -1
@<TRIPOS>BOND
     1    11    12    1
     2    12    13   ar
     3    13    14   ar
     4    14    15   ar
     5    15    16    1
     6    15    17   ar
     7    17     1    1
     8     1     2   ar
     9     2     3   ar
    10     3     4   ar
    11     4     5   ar
    12     5    21    1
    13    21    23    1
    14    23    24   ar
    15    24    25   ar
    16    25    26   ar
    17    26    27   ar
    18    27    28   ar
    19    28    29    1
    20    29    30    1
    21    29    31    1
    22    29    32    1
    23     5     6   ar
    24     6    18    1
    25    18    19   ar
    26    18    20   ar
    27     6     7   ar
    28     7     8   ar
    29     8     9   ar
    30     9    10   ar
    31    17    12   ar
    32    10     1   ar
    33     9     4   ar
    34    28    23   ar
    35    21    22    1
@<TRIPOS>MOLECULE
*****
 32 35 0 0 0
SMALL
GASTEIGER

@<TRIPOS>ATOM
      1 C          64.0767   89.1341   13.9071 C.ar    1  UNL1        0.0054
      2 C          63.4247   89.0779   12.5575 C.ar    1  UNL1        0.0003
      3 C          63.0462   87.7542   11.9620 C.ar    1  UNL1        0.0027
      4 C          63.3198   86.4868   12.7162 C.ar    1  UNL1        0.0311
      5 C          62.9412   85.1631   12.1207 C.ar    1  UNL1        0.0523
      6 C          63.2148   83.8957   12.8749 C.ar    1  UNL1        0.0465
      7 C          63.8668   83.9520   14.2246 C.ar    1  UNL1        0.1011
      8 N          64.2453   85.2757   14.8201 N.ar    1  UNL1       -0.2437
      9 C          63.9718   86.5431   14.0659 C.ar    1  UNL1        0.0825
     10 C          64.3502   87.8667   14.6613 C.ar    1  UNL1        0.0193
     11 C          63.2912   90.1889   16.8938 C.3     1  UNL1        0.0556
     12 C          64.0942   90.9426   15.8755 C.ar    1  UNL1        0.1006
     13 N          64.6770   92.3135   16.0512 N.ar    1  UNL1       -0.0817
     14 O          65.3984   92.6761   14.7869 O.2     1  UNL1       -0.3581
     15 C          65.2613   91.5292   13.8299 C.ar    1  UNL1        0.1544
     16 C          65.8303   91.4649   12.4435 C.3     1  UNL1        0.0754
     17 C          64.4552   90.4579   14.5027 C.ar    1  UNL1        0.0497
     18 C          62.8363   82.5720   12.2794 C.2     1  UNL1        0.0756
     19 O          61.9446   81.6353   13.0392 O.co2   1  UNL1       -0.5445
     20 O          63.3496   82.1851   10.9241 O.co2   1  UNL1       -0.5445
     21 N          62.2892   85.1069   10.7710 N.pl3   1  UNL1       -0.3127
     22 H          62.4478   84.3360   10.1794 H       1  UNL1        0.1522
     23 C          61.3956   86.2250   10.3226 C.ar    1  UNL1        0.0442
     24 C          60.7173   87.0962   11.3379 C.ar    1  UNL1        0.0143
     25 C          59.8236   88.2144   10.8895 C.ar    1  UNL1        0.0013
     26 C          59.6083   88.4614    9.4257 C.ar    1  UNL1       -0.0002
     27 C          60.2866   87.5902    8.4103 C.ar    1  UNL1       -0.0031
     28 C          61.1802   86.4720    8.8588 C.ar    1  UNL1       -0.0094
     29 C          61.8585   85.6008    7.8434 C.3     1  UNL1        0.0201
     30 C          60.5321   85.3116    7.2055 C.3     1  UNL1        0.0044
     31 C          63.1849   85.8901    8.4813 C.3     1  UNL1        0.0044
     32 C          62.5368   84.7297    6.8281 C.3     1  UNL1        0.0044
@<TRIPOS>UNITY_ATOM_ATTR
19 1
charge -1
@<TRIPOS>BOND
     1    11    12    1
     2    12    13   ar
     3    13    14   ar
     4    14    15   ar
     5    15    16    1
     6    15    17   ar
     7    17     1    1
     8     1     2   ar
     9     2     3   ar
    10     3     4   ar
    11     4     5   ar
    12     5    21    1
    13    21    23    1
    14    23    24   ar
    15    24    25   ar
    16    25    26   ar
    17    26    27   ar
    18    27    28   ar
    19    28    29    1
    20    29    30    1
    21    29    31    1
    22    29    32    1
    23     5     6   ar
    24     6    18    1
    25    18    19   ar
    26    18    20   ar
    27     6     7   ar
    28     7     8   ar
    29     8     9   ar
    30     9    10   ar
    31    17    12   ar
    32    10     1   ar
    33     9     4   ar
    34    28    23   ar
    35    21    22    1
@<TRIPOS>MOLECULE
*****
 32 35 0 0 0
SMALL
GASTEIGER

@<TRIPOS>ATOM
      1 C          64.7056   90.5038   13.4965 C.ar    1  UNL1        0.0054
      2 C          63.6721   90.2463   12.4404 C.ar    1  UNL1        0.0003
      3 C          63.0650   88.8817   12.3021 C.ar    1  UNL1        0.0027
      4 C          63.4915   87.7745   13.2198 C.ar    1  UNL1        0.0311
      5 C          62.8843   86.4098   13.0815 C.ar    1  UNL1        0.0523
      6 C          63.3108   85.3027   13.9992 C.ar    1  UNL1        0.0465
      7 C          64.3445   85.5602   15.0554 C.ar    1  UNL1        0.1011
      8 N          64.9515   86.9248   15.1937 N.ar    1  UNL1       -0.2437
      9 C          64.5250   88.0320   14.2759 C.ar    1  UNL1        0.0825
     10 C          65.1321   89.3966   14.4143 C.ar    1  UNL1        0.0193
     11 C          65.7484   92.3964   11.0510 C.3     1  UNL1        0.0556
     12 C          65.7921   92.7384   12.5108 C.ar    1  UNL1        0.1006
     13 N          66.3227   94.0103   13.1029 N.ar    1  UNL1       -0.0817
     14 O          66.1714   93.9266   14.5929 O.2     1  UNL1       -0.3581
     15 C          65.5472   92.6028   14.9217 C.ar    1  UNL1        0.1544
     16 C          65.2157   92.1014   16.2960 C.3     1  UNL1        0.0754
     17 C          65.3128   91.8685   13.6349 C.ar    1  UNL1        0.0497
     18 C          62.7037   83.9380   13.8609 C.2     1  UNL1        0.0756
     19 O          63.1142   83.0460   12.7270 O.co2   1  UNL1       -0.5445
     20 O          61.6861   83.4654   14.8565 O.co2   1  UNL1       -0.5445
     21 N          61.8508   86.1524   12.0254 N.pl3   1  UNL1       -0.3127
     22 H          60.8951   86.2627   12.2346 H       1  UNL1        0.1522
     23 C          62.2732   85.7268   10.6504 C.ar    1  UNL1        0.0442
     24 C          63.1397   84.5153   10.4734 C.ar    1  UNL1        0.0143
     25 C          63.5622   84.0898    9.0985 C.ar    1  UNL1        0.0013
     26 C          63.1181   84.8757    7.9006 C.ar    1  UNL1       -0.0002
     27 C          62.2515   86.0872    8.0775 C.ar    1  UNL1       -0.0031
     28 C          61.8290   86.5128    9.4525 C.ar    1  UNL1       -0.0094
     29 C          60.9625   87.7243    9.6295 C.3     1  UNL1        0.0201
     30 C          59.7389   86.8597    9.5561 C.3     1  UNL1        0.0044
     31 C          62.1861   88.5888    9.7029 C.3     1  UNL1        0.0044
     32 C          60.0959   88.9357    9.8065 C.3     1  UNL1        0.0044
@<TRIPOS>UNITY_ATOM_ATTR
19 1
charge -1
@<TRIPOS>BOND
     1    11    12    1
     2    12    13   ar
     3    13    14   ar
     4    14    15   ar
     5    15    16    1
     6    15    17   ar
     7    17     1    1
     8     1     2   ar
     9     2     3   ar
    10     3     4   ar
    11     4     5   ar
    12     5    21    1
    13    21    23    1
    14    23    24   ar
    15    24    25   ar
    16    25    26   ar
    17    26    27   ar
    18    27    28   ar
    19    28    29    1
    20    29    30    1
    21    29    31    1
    22    29    32    1
    23     5     6   ar
    24     6    18    1
    25    18    19   ar
    26    18    20   ar
    27     6     7   ar
    28     7     8   ar
    29     8     9   ar
    30     9    10   ar
    31    17    12   ar
    32    10     1   ar
    33     9     4   ar
    34    28    23   ar
    35    21    22    1
@<TRIPOS>MOLECULE
*****
 32 35 0 0 0
SMALL
GASTEIGER

@<TRIPOS>ATOM
      1 C          62.8190   83.6411   12.4109 C.ar    1  UNL1        0.0054
      2 C          62.3214   84.3694   11.1977 C.ar    1  UNL1        0.0003
      3 C          62.4267   85.8638   11.1244 C.ar    1  UNL1        0.0027
      4 C          63.0295   86.6300   12.2644 C.ar    1  UNL1        0.0311
      5 C          63.1348   88.1246   12.1911 C.ar    1  UNL1        0.0523
      6 C          63.7377   88.8908   13.3310 C.ar    1  UNL1        0.0465
      7 C          64.2353   88.1624   14.5443 C.ar    1  UNL1        0.1011
      8 N          64.1300   86.6679   14.6175 N.ar    1  UNL1       -0.2437
      9 C          63.5272   85.9017   13.4776 C.ar    1  UNL1        0.0825
     10 C          63.4219   84.4073   13.5508 C.ar    1  UNL1        0.0193
     11 C          61.5485   81.9263   14.8797 C.3     1  UNL1        0.0556
     12 C          62.1298   81.3584   13.6190 C.ar    1  UNL1        0.1006
     13 N          62.2291   79.9025   13.2717 N.ar    1  UNL1       -0.0817
     14 O          62.8746   79.7909   11.9222 O.2     1  UNL1       -0.3581
     15 C          63.1741   81.1778   11.4355 C.ar    1  UNL1        0.1544
     16 C          63.8204   81.5334   10.1295 C.3     1  UNL1        0.0754
     17 C          62.7138   82.1465   12.4842 C.ar    1  UNL1        0.0497
     18 C          63.8429   90.3852   13.2578 C.2     1  UNL1        0.0756
     19 O          63.5708   91.2169   14.4761 O.co2   1  UNL1       -0.5445
     20 O          64.2203   91.0481   11.9662 O.co2   1  UNL1       -0.5445
     21 N          62.6372   88.8529   10.9779 N.pl3   1  UNL1       -0.3127
     22 H          62.9094   89.7852   10.8173 H       1  UNL1        0.1522
     23 C          61.7247   88.1606   10.0093 C.ar    1  UNL1        0.0442
     24 C          62.2811   87.1651    9.0351 C.ar    1  UNL1        0.0143
     25 C          61.3686   86.4728    8.0665 C.ar    1  UNL1        0.0013
     26 C          59.8997   86.7761    8.0722 C.ar    1  UNL1       -0.0002
     27 C          59.3431   87.7717    9.0464 C.ar    1  UNL1       -0.0031
     28 C          60.2556   88.4640   10.0150 C.ar    1  UNL1       -0.0094
     29 C          59.6991   89.4595   10.9892 C.3     1  UNL1        0.0201
     30 C          60.0329   90.5734   10.0417 C.3     1  UNL1        0.0044
     31 C          59.3653   88.3457   11.9368 C.3     1  UNL1        0.0044
     32 C          59.1427   90.4551   11.9634 C.3     1  UNL1        0.0044
@<TRIPOS>UNITY_ATOM_ATTR
19 1
charge -1
@<TRIPOS>BOND
     1    11    12    1
     2    12    13   ar
     3    13    14   ar
     4    14    15   ar
     5    15    16    1
     6    15    17   ar
     7    17     1    1
     8     1     2   ar
     9     2     3   ar
    10     3     4   ar
    11     4     5   ar
    12     5    21    1
    13    21    23    1
    14    23    24   ar
    15    24    25   ar
    16    25    26   ar
    17    26    27   ar
    18    27    28   ar
    19    28    29    1
    20    29    30    1
    21    29    31    1
    22    29    32    1
    23     5     6   ar
    24     6    18    1
    25    18    19   ar
    26    18    20   ar
    27     6     7   ar
    28     7     8   ar
    29     8     9   ar
    30     9    10   ar
    31    17    12   ar
    32    10     1   ar
    33     9     4   ar
    34    28    23   ar
    35    21    22    1
@<TRIPOS>MOLECULE
*****
 32 35 0 0 0
SMALL
GASTEIGER

@<TRIPOS>ATOM
      1 C          63.1060   83.9141   12.3858 C.ar    1  UNL1        0.0054
      2 C          62.2364   84.9390   11.7199 C.ar    1  UNL1        0.0003
      3 C          62.3098   86.3754   12.1456 C.ar    1  UNL1        0.0027
      4 C          63.2527   86.7870   13.2372 C.ar    1  UNL1        0.0311
      5 C          63.3260   88.2235   13.6629 C.ar    1  UNL1        0.0523
      6 C          64.2689   88.6350   14.7544 C.ar    1  UNL1        0.0465
      7 C          65.1385   87.6101   15.4203 C.ar    1  UNL1        0.1011
      8 N          65.0652   86.1736   14.9946 N.ar    1  UNL1       -0.2437
      9 C          64.1223   85.7621   13.9031 C.ar    1  UNL1        0.0825
     10 C          64.0489   84.3257   13.4774 C.ar    1  UNL1        0.0193
     11 C          64.2695   82.6774    9.5989 C.3     1  UNL1        0.0556
     12 C          63.5675   81.9092   10.6792 C.ar    1  UNL1        0.1006
     13 N          63.2770   80.4377   10.6681 N.ar    1  UNL1       -0.0817
     14 O          62.5626   80.0966   11.9422 O.2     1  UNL1       -0.3581
     15 C          62.4116   81.3573   12.7407 C.ar    1  UNL1        0.1544
     16 C          61.7549   81.4768   14.0840 C.3     1  UNL1        0.0754
     17 C          63.0327   82.4776   11.9601 C.ar    1  UNL1        0.0497
     18 C          64.3423   90.0715   15.1801 C.2     1  UNL1        0.0756
     19 O          63.1328   90.7455   15.7570 O.co2   1  UNL1       -0.5445
     20 O          65.6252   90.8340   15.0289 O.co2   1  UNL1       -0.5445
     21 N          62.4565   89.2484   12.9970 N.pl3   1  UNL1       -0.3127
     22 H          61.4926   89.2797   13.1951 H       1  UNL1        0.1522
     23 C          63.0554   90.2255   12.0293 C.ar    1  UNL1        0.0442
     24 C          64.2061   91.0900   12.4518 C.ar    1  UNL1        0.0143
     25 C          64.8051   92.0671   11.4841 C.ar    1  UNL1        0.0013
     26 C          64.2533   92.1798   10.0939 C.ar    1  UNL1       -0.0002
     27 C          63.1026   91.3153    9.6713 C.ar    1  UNL1       -0.0031
     28 C          62.5036   90.3382   10.6390 C.ar    1  UNL1       -0.0094
     29 C          61.3529   89.4737   10.2164 C.3     1  UNL1        0.0201
     30 C          60.3910   90.4913   10.7541 C.3     1  UNL1        0.0044
     31 C          62.3149   88.4562    9.6787 C.3     1  UNL1        0.0044
     32 C          60.2023   88.6093    9.7938 C.3     1  UNL1        0.0044
@<TRIPOS>UNITY_ATOM_ATTR
19 1
charge -1
@<TRIPOS>BOND
     1    11    12    1
     2    12    13   ar
     3    13    14   ar
     4    14    15   ar
     5    15    16    1
     6    15    17   ar
     7    17     1    1
     8     1     2   ar
     9     2     3   ar
    10     3     4   ar
    11     4     5   ar
    12     5    21    1
    13    21    23    1
    14    23    24   ar
    15    24    25   ar
    16    25    26   ar
    17    26    27   ar
    18    27    28   ar
    19    28    29    1
    20    29    30    1
    21    29    31    1
    22    29    32    1
    23     5     6   ar
    24     6    18    1
    25    18    19   ar
    26    18    20   ar
    27     6     7   ar
    28     7     8   ar
    29     8     9   ar
    30     9    10   ar
    31    17    12   ar
    32    10     1   ar
    33     9     4   ar
    34    28    23   ar
    35    21    22    1
