@<TRIPOS>MOLECULE
*****
 38 42 0 0 0
SMALL
GASTEIGER

@<TRIPOS>ATOM
      1 O          64.1883   89.4217   15.7482 O.3     1  UNL1       -0.4731
      2 C          63.2922   85.0298   15.3508 C.ar    1  UNL1        0.1549
      3 C          62.9701   85.7484   16.6274 C.ar    1  UNL1        0.0553
      4 C          63.2688   87.2123   16.7599 C.ar    1  UNL1        0.1753
      5 F          62.9467   87.9310   18.0365 F       1  UNL1       -0.2009
      6 C          63.8896   87.9576   15.6157 C.ar    1  UNL1        0.1681
      7 C          64.2117   87.2390   14.3391 C.ar    1  UNL1        0.0702
      8 C          63.9130   85.7751   14.2067 C.ar    1  UNL1        0.1620
      9 F          64.2352   85.0564   12.9300 F       1  UNL1       -0.2026
     10 O          61.5547   83.8846   14.9390 O.2     1  UNL1       -0.1498
     11 S          62.9935   83.5657   15.2183 S.O2    1  UNL1        0.0773
     12 O          64.4323   83.2468   15.4975 O.2     1  UNL1       -0.1498
     13 N          62.6948   82.1018   15.0858 N.pl3   1  UNL1       -0.1925
     14 H          62.4642   81.5723   15.8831 H       1  UNL1        0.1758
     15 C          62.7473   81.4445   13.7384 C.ar    1  UNL1        0.1977
     16 N          63.1481   82.1026   12.4514 N.ar    1  UNL1       -0.1997
     17 C          63.0567   81.0786   11.3591 C.ar    1  UNL1        0.2082
     18 N          62.5996   79.7876   11.9711 N.ar    1  UNL1       -0.1840
     19 S          62.4083   80.0138   13.4416 S.2     1  UNL1        0.0508
     20 C          63.5548   90.4044   14.8087 C.3     1  UNL1        0.2058
     21 C          63.2030   89.9867   13.4116 C.3     1  UNL1        0.0514
     22 C          63.6843   90.7951   12.2434 C.3     1  UNL1        0.0226
     23 C          64.6028   91.3092   13.3120 C.3     1  UNL1        0.0055
     24 C          65.6256   92.3556   12.9822 C.3     1  UNL1        0.0160
     25 C          65.7299   92.8880   11.5836 C.3     1  UNL1        0.0540
     26 C          64.8113   92.3739   10.5151 C.3     1  UNL1        0.0160
     27 C          63.7885   91.3275   10.8449 C.3     1  UNL1        0.0055
     28 C          62.5986   90.0002   11.5805 C.ar    1  UNL1       -0.0227
     29 C          61.4108   90.7001   10.9895 C.ar    1  UNL1       -0.0043
     30 C          60.3250   89.9053   10.3266 C.ar    1  UNL1       -0.0003
     31 C          60.4271   88.4105   10.2547 C.ar    1  UNL1       -0.0000
     32 C          61.6149   87.7106   10.8457 C.ar    1  UNL1       -0.0003
     33 C          62.7007   88.5054   11.5086 C.ar    1  UNL1       -0.0043
     34 N          66.7526   93.9345   11.2538 N.3     1  UNL1       -0.2996
     35 H          67.5332   93.7959   11.8956 H       1  UNL1        0.1232
     36 C          67.3346   94.0055    9.8731 C.3     1  UNL1        0.0540
     37 C          68.2118   93.4285    8.8018 C.3     1  UNL1        0.0171
     38 C          67.4655   94.7057    8.5531 C.3     1  UNL1        0.0171
@<TRIPOS>BOND
     1    10    11    2
     2    11    12    2
     3    11    13    1
     4    13    15    1
     5    15    16   ar
     6    16    17   ar
     7    17    18   ar
     8    18    19   ar
     9    11     2    1
    10     2     3   ar
    11     3     4   ar
    12     4     5    1
    13     4     6   ar
    14     6     1    1
    15     1    20    1
    16    20    21    1
    17    22    21    1
    18    22    28    1
    19    28    29   ar
    20    29    30   ar
    21    30    31   ar
    22    31    32   ar
    23    32    33   ar
    24    22    23    1
    25    23    24    1
    26    24    25    1
    27    25    34    1
    28    34    36    1
    29    36    37    1
    30    37    38    1
    31    25    26    1
    32    26    27    1
    33     6     7   ar
    34     7     8   ar
    35     8     9    1
    36    19    15   ar
    37     8     2   ar
    38    27    22    1
    39    33    28   ar
    40    38    36    1
    41    13    14    1
    42    34    35    1
@<TRIPOS>MOLECULE
*****
 38 42 0 0 0
SMALL
GASTEIGER

@<TRIPOS>ATOM
      1 O          62.7376   88.9184   13.1419 O.3     1  UNL1       -0.4731
      2 C          65.3702   92.3917   12.0213 C.ar    1  UNL1        0.1549
      3 C          65.6042   91.6579   13.3084 C.ar    1  UNL1        0.0553
      4 C          64.7267   90.5002   13.6819 C.ar    1  UNL1        0.1753
      5 F          64.9607   89.7663   14.9691 F       1  UNL1       -0.2009
      6 C          63.6151   90.0762   12.7683 C.ar    1  UNL1        0.1681
      7 C          63.3811   90.8100   11.4812 C.ar    1  UNL1        0.0702
      8 C          64.2586   91.9677   11.1076 C.ar    1  UNL1        0.1620
      9 F          64.0247   92.7016    9.8204 F       1  UNL1       -0.2026
     10 O          65.7870   94.2920   12.8668 O.2     1  UNL1       -0.1498
     11 S          66.2478   93.5495   11.6477 S.O2    1  UNL1        0.0773
     12 O          66.7086   92.8069   10.4286 O.2     1  UNL1       -0.1498
     13 N          67.1253   94.7072   11.2742 N.pl3   1  UNL1       -0.1925
     14 H          67.8857   94.9540   11.8487 H       1  UNL1        0.1758
     15 C          66.8442   95.4890   10.0252 C.ar    1  UNL1        0.1977
     16 N          67.7883   95.6842    8.8760 N.ar    1  UNL1       -0.1997
     17 C          67.0973   96.5287    7.8468 C.ar    1  UNL1        0.2082
     18 N          65.7261   96.8554    8.3599 N.ar    1  UNL1       -0.1840
     19 S          65.5697   96.2128    9.7063 S.2     1  UNL1        0.0508
     20 C          61.8627   88.2758   12.1067 C.3     1  UNL1        0.2058
     21 C          62.4696   87.4008   11.0502 C.3     1  UNL1        0.0514
     22 C          61.6380   86.9381    9.8908 C.3     1  UNL1        0.0226
     23 C          61.2713   88.3925    9.9104 C.3     1  UNL1        0.0055
     24 C          60.3007   88.9349    8.9036 C.3     1  UNL1        0.0160
     25 C          59.6967   88.0229    7.8772 C.3     1  UNL1        0.0540
     26 C          60.0634   86.5686    7.8576 C.3     1  UNL1        0.0160
     27 C          61.0340   86.0262    8.8644 C.3     1  UNL1        0.0055
     28 C          62.2935   85.6445   10.2738 C.ar    1  UNL1       -0.0227
     29 C          62.0993   85.0845   11.6518 C.ar    1  UNL1       -0.0043
     30 C          62.7549   83.7908   12.0349 C.ar    1  UNL1       -0.0003
     31 C          63.6045   83.0571   11.0400 C.ar    1  UNL1       -0.0000
     32 C          63.7986   83.6171    9.6621 C.ar    1  UNL1       -0.0003
     33 C          63.1432   84.9108    9.2789 C.ar    1  UNL1       -0.0043
     34 N          58.7260   88.5653    6.8704 N.3     1  UNL1       -0.2996
     35 H          57.8525   88.7390    7.3675 H       1  UNL1        0.1232
     36 C          59.0513   89.8198    6.1152 C.3     1  UNL1        0.0540
     37 C          58.6057   91.0885    5.4505 C.3     1  UNL1        0.0171
     38 C          60.0605   90.7240    5.4719 C.3     1  UNL1        0.0171
@<TRIPOS>BOND
     1    10    11    2
     2    11    12    2
     3    11    13    1
     4    13    15    1
     5    15    16   ar
     6    16    17   ar
     7    17    18   ar
     8    18    19   ar
     9    11     2    1
    10     2     3   ar
    11     3     4   ar
    12     4     5    1
    13     4     6   ar
    14     6     1    1
    15     1    20    1
    16    20    21    1
    17    22    21    1
    18    22    28    1
    19    28    29   ar
    20    29    30   ar
    21    30    31   ar
    22    31    32   ar
    23    32    33   ar
    24    22    23    1
    25    23    24    1
    26    24    25    1
    27    25    34    1
    28    34    36    1
    29    36    37    1
    30    37    38    1
    31    25    26    1
    32    26    27    1
    33     6     7   ar
    34     7     8   ar
    35     8     9    1
    36    19    15   ar
    37     8     2   ar
    38    27    22    1
    39    33    28   ar
    40    38    36    1
    41    13    14    1
    42    34    35    1
@<TRIPOS>MOLECULE
*****
 38 42 0 0 0
SMALL
GASTEIGER

@<TRIPOS>ATOM
      1 O          63.5022   88.8975   16.8353 O.3     1  UNL1       -0.4731
      2 C          63.2970   84.6316   15.4176 C.ar    1  UNL1        0.1549
      3 C          62.7707   84.9974   16.7738 C.ar    1  UNL1        0.0553
      4 C          62.8391   86.4193   17.2463 C.ar    1  UNL1        0.1753
      5 F          62.3129   86.7851   18.6025 F       1  UNL1       -0.2009
      6 C          63.4338   87.4755   16.3627 C.ar    1  UNL1        0.1681
      7 C          63.9601   87.1098   15.0065 C.ar    1  UNL1        0.0702
      8 C          63.8916   85.6878   14.5340 C.ar    1  UNL1        0.1620
      9 F          64.4179   85.3220   13.1777 F       1  UNL1       -0.2026
     10 O          64.6393   82.9891   15.4044 O.2     1  UNL1       -0.1498
     11 S          63.2286   83.2096   14.9450 S.O2    1  UNL1        0.0773
     12 O          61.8178   83.4301   14.4856 O.2     1  UNL1       -0.1498
     13 N          63.1602   81.7877   14.4724 N.pl3   1  UNL1       -0.1925
     14 H          63.0882   81.0547   15.1258 H       1  UNL1        0.1758
     15 C          63.2015   81.4824   13.0043 C.ar    1  UNL1        0.1977
     16 N          62.6630   80.2473   12.3451 N.ar    1  UNL1       -0.1997
     17 C          62.9173   80.3602   10.8711 C.ar    1  UNL1        0.2082
     18 N          63.6129   81.6652   10.6194 N.ar    1  UNL1       -0.1840
     19 S          63.7886   82.3587   11.9378 S.2     1  UNL1        0.0508
     20 C          63.3838   90.0220   15.8496 C.3     1  UNL1        0.2058
     21 C          64.6195   90.6766   15.3066 C.3     1  UNL1        0.0514
     22 C          64.6612   91.1312   13.8778 C.3     1  UNL1        0.0226
     23 C          63.3718   90.3647   13.8697 C.3     1  UNL1        0.0055
     24 C          62.5669   90.2642   12.6079 C.3     1  UNL1        0.0160
     25 C          63.0514   90.9303   11.3542 C.3     1  UNL1        0.0540
     26 C          64.3407   91.6968   11.3624 C.3     1  UNL1        0.0160
     27 C          65.1456   91.7972   12.6241 C.3     1  UNL1        0.0055
     28 C          65.9360   91.7398   14.3821 C.ar    1  UNL1       -0.0227
     29 C          67.1831   91.6637   13.5521 C.ar    1  UNL1       -0.0043
     30 C          68.4580   92.2723   14.0565 C.ar    1  UNL1       -0.0003
     31 C          68.4857   92.9570   15.3908 C.ar    1  UNL1       -0.0000
     32 C          67.2386   93.0330   16.2207 C.ar    1  UNL1       -0.0003
     33 C          65.9637   92.4245   15.7165 C.ar    1  UNL1       -0.0043
     34 N          62.2466   90.8298   10.0924 N.3     1  UNL1       -0.2996
     35 H          62.8648   91.0977    9.3267 H       1  UNL1        0.1232
     36 C          61.6187   89.5237    9.7053 C.3     1  UNL1        0.0540
     37 C          61.6215   88.0238    9.7277 C.3     1  UNL1        0.0171
     38 C          60.5285   88.7613    9.0125 C.3     1  UNL1        0.0171
@<TRIPOS>BOND
     1    10    11    2
     2    11    12    2
     3    11    13    1
     4    13    15    1
     5    15    16   ar
     6    16    17   ar
     7    17    18   ar
     8    18    19   ar
     9    11     2    1
    10     2     3   ar
    11     3     4   ar
    12     4     5    1
    13     4     6   ar
    14     6     1    1
    15     1    20    1
    16    20    21    1
    17    22    21    1
    18    22    28    1
    19    28    29   ar
    20    29    30   ar
    21    30    31   ar
    22    31    32   ar
    23    32    33   ar
    24    22    23    1
    25    23    24    1
    26    24    25    1
    27    25    34    1
    28    34    36    1
    29    36    37    1
    30    37    38    1
    31    25    26    1
    32    26    27    1
    33     6     7   ar
    34     7     8   ar
    35     8     9    1
    36    19    15   ar
    37     8     2   ar
    38    27    22    1
    39    33    28   ar
    40    38    36    1
    41    13    14    1
    42    34    35    1
@<TRIPOS>MOLECULE
*****
 38 42 0 0 0
SMALL
GASTEIGER

@<TRIPOS>ATOM
      1 O          63.6243   89.2217   14.3037 O.3     1  UNL1       -0.4731
      2 C          65.7694   92.5881   12.2263 C.ar    1  UNL1        0.1549
      3 C          64.4885   92.0518   11.6591 C.ar    1  UNL1        0.0553
      4 C          63.7735   90.9297   12.3516 C.ar    1  UNL1        0.1753
      5 F          62.4926   90.3933   11.7844 F       1  UNL1       -0.2009
      6 C          64.3394   90.3439   13.6112 C.ar    1  UNL1        0.1681
      7 C          65.6202   90.8802   14.1784 C.ar    1  UNL1        0.0702
      8 C          66.3352   92.0023   13.4859 C.ar    1  UNL1        0.1620
      9 F          67.6161   92.5387   14.0531 F       1  UNL1       -0.2026
     10 O          66.1446   94.6282   12.6705 O.2     1  UNL1       -0.1498
     11 S          66.4845   93.7103   11.5338 S.O2    1  UNL1        0.0773
     12 O          66.8243   92.7924   10.3972 O.2     1  UNL1       -0.1498
     13 N          67.1995   94.8325   10.8415 N.pl3   1  UNL1       -0.1925
     14 H          68.1237   95.0580   11.0950 H       1  UNL1        0.1758
     15 C          66.5064   95.6110    9.7627 C.ar    1  UNL1        0.1977
     16 N          65.1035   96.1388    9.8189 N.ar    1  UNL1       -0.1997
     17 C          64.8247   96.8524    8.5294 C.ar    1  UNL1        0.2082
     18 N          66.0554   96.7658    7.6762 N.ar    1  UNL1       -0.1840
     19 S          67.0948   95.9985    8.4385 S.2     1  UNL1        0.0508
     20 C          63.8037   87.8108   13.8272 C.3     1  UNL1        0.2058
     21 C          63.1798   87.3701   12.5361 C.3     1  UNL1        0.0514
     22 C          62.8736   85.9196   12.3078 C.3     1  UNL1        0.0226
     23 C          63.7239   85.8156   13.5392 C.3     1  UNL1        0.0055
     24 C          64.0096   84.4721   14.1420 C.3     1  UNL1        0.0160
     25 C          63.4450   83.2326   13.5135 C.3     1  UNL1        0.0540
     26 C          62.5947   83.3367   12.2823 C.3     1  UNL1        0.0160
     27 C          62.3090   84.6801   11.6794 C.3     1  UNL1        0.0055
     28 C          62.1296   86.5274   11.1559 C.ar    1  UNL1       -0.0227
     29 C          62.3871   86.0457    9.7588 C.ar    1  UNL1       -0.0043
     30 C          61.6431   86.6535    8.6068 C.ar    1  UNL1       -0.0003
     31 C          60.6417   87.7429    8.8518 C.ar    1  UNL1       -0.0000
     32 C          60.3842   88.2247   10.2488 C.ar    1  UNL1       -0.0003
     33 C          61.1281   87.6169   11.4009 C.ar    1  UNL1       -0.0043
     34 N          63.7307   81.8892   14.1164 N.3     1  UNL1       -0.2996
     35 H          63.7266   82.0138   15.1288 H       1  UNL1        0.1232
     36 C          62.8300   80.7270   13.8196 C.3     1  UNL1        0.0540
     37 C          61.4697   80.0957   13.8540 C.3     1  UNL1        0.0171
     38 C          62.6302   79.3454   13.2709 C.3     1  UNL1        0.0171
@<TRIPOS>BOND
     1    10    11    2
     2    11    12    2
     3    11    13    1
     4    13    15    1
     5    15    16   ar
     6    16    17   ar
     7    17    18   ar
     8    18    19   ar
     9    11     2    1
    10     2     3   ar
    11     3     4   ar
    12     4     5    1
    13     4     6   ar
    14     6     1    1
    15     1    20    1
    16    20    21    1
    17    22    21    1
    18    22    28    1
    19    28    29   ar
    20    29    30   ar
    21    30    31   ar
    22    31    32   ar
    23    32    33   ar
    24    22    23    1
    25    23    24    1
    26    24    25    1
    27    25    34    1
    28    34    36    1
    29    36    37    1
    30    37    38    1
    31    25    26    1
    32    26    27    1
    33     6     7   ar
    34     7     8   ar
    35     8     9    1
    36    19    15   ar
    37     8     2   ar
    38    27    22    1
    39    33    28   ar
    40    38    36    1
    41    13    14    1
    42    34    35    1
@<TRIPOS>MOLECULE
*****
 38 42 0 0 0
SMALL
GASTEIGER

@<TRIPOS>ATOM
      1 O          64.4043   90.1079   14.7702 O.3     1  UNL1       -0.4731
      2 C          66.0699   93.4274   12.2293 C.ar    1  UNL1        0.1549
      3 C          66.4811   93.3046   13.6666 C.ar    1  UNL1        0.0553
      4 C          65.9259   92.1981   14.5135 C.ar    1  UNL1        0.1753
      5 F          66.3370   92.0752   15.9509 F       1  UNL1       -0.2009
      6 C          64.9595   91.2144   13.9232 C.ar    1  UNL1        0.1681
      7 C          64.5484   91.3372   12.4859 C.ar    1  UNL1        0.0702
      8 C          65.1036   92.4437   11.6389 C.ar    1  UNL1        0.1620
      9 F          64.6925   92.5666   10.2016 F       1  UNL1       -0.2026
     10 O          65.9488   95.5450   12.2598 O.2     1  UNL1       -0.1498
     11 S          66.6252   94.5339   11.3823 S.O2    1  UNL1        0.0773
     12 O          67.3016   93.5229   10.5047 O.2     1  UNL1       -0.1498
     13 N          67.1803   95.6405   10.5353 N.pl3   1  UNL1       -0.1925
     14 H          67.9838   96.1285   10.8278 H       1  UNL1        0.1758
     15 C          66.5114   96.0034    9.2427 C.ar    1  UNL1        0.1977
     16 N          67.0507   95.7435    7.8674 N.ar    1  UNL1       -0.1997
     17 C          66.0583   96.2694    6.8732 C.ar    1  UNL1        0.2082
     18 N          64.9056   96.8545    7.6341 N.ar    1  UNL1       -0.1840
     19 S          65.1856   96.6901    9.0986 S.2     1  UNL1        0.0508
     20 C          64.3568   88.7067   14.2368 C.3     1  UNL1        0.2058
     21 C          63.5128   88.3886   13.0382 C.3     1  UNL1        0.0514
     22 C          63.1889   86.9621   12.7063 C.3     1  UNL1        0.0226
     23 C          64.0421   86.7591   13.9232 C.3     1  UNL1        0.0055
     24 C          64.3140   85.3722   14.4256 C.3     1  UNL1        0.0160
     25 C          63.7329   84.1882   13.7110 C.3     1  UNL1        0.0540
     26 C          62.8798   84.3913   12.4940 C.3     1  UNL1        0.0160
     27 C          62.6078   85.7782   11.9917 C.3     1  UNL1        0.0055
     28 C          62.4483   87.6606   11.6046 C.ar    1  UNL1       -0.0227
     29 C          62.6902   89.1180   11.3449 C.ar    1  UNL1       -0.0043
     30 C          61.9495   89.8166   10.2432 C.ar    1  UNL1       -0.0003
     31 C          60.9671   89.0576    9.4013 C.ar    1  UNL1       -0.0000
     32 C          60.7253   87.6002    9.6611 C.ar    1  UNL1       -0.0003
     33 C          61.4659   86.9017   10.7627 C.ar    1  UNL1       -0.0043
     34 N          64.0049   82.8013   14.2133 N.3     1  UNL1       -0.2996
     35 H          64.1718   82.8789   15.2166 H       1  UNL1        0.1232
     36 C          62.9802   81.7217   14.0271 C.3     1  UNL1        0.0540
     37 C          62.6405   80.2822   13.7774 C.3     1  UNL1        0.0171
     38 C          61.5451   81.2915   13.9543 C.3     1  UNL1        0.0171
@<TRIPOS>BOND
     1    10    11    2
     2    11    12    2
     3    11    13    1
     4    13    15    1
     5    15    16   ar
     6    16    17   ar
     7    17    18   ar
     8    18    19   ar
     9    11     2    1
    10     2     3   ar
    11     3     4   ar
    12     4     5    1
    13     4     6   ar
    14     6     1    1
    15     1    20    1
    16    20    21    1
    17    22    21    1
    18    22    28    1
    19    28    29   ar
    20    29    30   ar
    21    30    31   ar
    22    31    32   ar
    23    32    33   ar
    24    22    23    1
    25    23    24    1
    26    24    25    1
    27    25    34    1
    28    34    36    1
    29    36    37    1
    30    37    38    1
    31    25    26    1
    32    26    27    1
    33     6     7   ar
    34     7     8   ar
    35     8     9    1
    36    19    15   ar
    37     8     2   ar
    38    27    22    1
    39    33    28   ar
    40    38    36    1
    41    13    14    1
    42    34    35    1
@<TRIPOS>MOLECULE
*****
 38 42 0 0 0
SMALL
GASTEIGER

@<TRIPOS>ATOM
      1 O          61.4269   89.2583   10.5256 O.3     1  UNL1       -0.4731
      2 C          62.7357   84.9561   10.6935 C.ar    1  UNL1        0.1549
      3 C          62.0670   85.4890    9.4611 C.ar    1  UNL1        0.0553
      4 C          61.6307   86.9231    9.4052 C.ar    1  UNL1        0.1753
      5 F          60.9620   87.4560    8.1728 F       1  UNL1       -0.2009
      6 C          61.8632   87.8242   10.5816 C.ar    1  UNL1        0.1681
      7 C          62.5319   87.2913   11.8140 C.ar    1  UNL1        0.0702
      8 C          62.9682   85.8572   11.8699 C.ar    1  UNL1        0.1620
      9 F          63.6369   85.3243   13.1023 F       1  UNL1       -0.2026
     10 O          62.1502   83.2528   11.8141 O.2     1  UNL1       -0.1498
     11 S          63.1720   83.5220   10.7495 S.O2    1  UNL1        0.0773
     12 O          64.1938   83.7912    9.6849 O.2     1  UNL1       -0.1498
     13 N          63.6082   82.0880   10.8056 N.pl3   1  UNL1       -0.1925
     14 H          64.0525   81.6779   10.0286 H       1  UNL1        0.1758
     15 C          63.3675   81.2787   12.0454 C.ar    1  UNL1        0.1977
     16 N          62.4922   80.0651   12.1501 N.ar    1  UNL1       -0.1997
     17 C          62.5436   79.5773   13.5676 C.ar    1  UNL1        0.2082
     18 N          63.4508   80.4895   14.3391 N.ar    1  UNL1       -0.1840
     19 S          63.9600   81.5410   13.3983 S.2     1  UNL1        0.0508
     20 C          62.2856   90.3277   11.1330 C.3     1  UNL1        0.2058
     21 C          62.8659   90.1357   12.5028 C.3     1  UNL1        0.0514
     22 C          64.1469   90.8203   12.8774 C.3     1  UNL1        0.0226
     23 C          63.9309   91.4011   11.5113 C.3     1  UNL1        0.0055
     24 C          64.9165   92.3822   10.9491 C.3     1  UNL1        0.0160
     25 C          66.1181   92.7825   11.7529 C.3     1  UNL1        0.0540
     26 C          66.3340   92.2016   13.1189 C.3     1  UNL1        0.0160
     27 C          65.3485   91.2205   13.6811 C.3     1  UNL1        0.0055
     28 C          63.9180   90.0017   14.1133 C.ar    1  UNL1       -0.0227
     29 C          64.2287   88.5343   14.1092 C.ar    1  UNL1       -0.0043
     30 C          63.9998   87.7156   15.3451 C.ar    1  UNL1       -0.0003
     31 C          63.4601   88.3645   16.5851 C.ar    1  UNL1       -0.0000
     32 C          63.1493   89.8320   16.5892 C.ar    1  UNL1       -0.0003
     33 C          63.3782   90.6506   15.3533 C.ar    1  UNL1       -0.0043
     34 N          67.1037   93.7635   11.1907 N.3     1  UNL1       -0.2996
     35 H          67.8645   93.8365   11.8661 H       1  UNL1        0.1232
     36 C          67.7345   93.5102    9.8536 C.3     1  UNL1        0.0540
     37 C          68.0839   93.9792    8.4722 C.3     1  UNL1        0.0171
     38 C          68.4777   92.6025    8.9189 C.3     1  UNL1        0.0171
@<TRIPOS>BOND
     1    10    11    2
     2    11    12    2
     3    11    13    1
     4    13    15    1
     5    15    16   ar
     6    16    17   ar
     7    17    18   ar
     8    18    19   ar
     9    11     2    1
    10     2     3   ar
    11     3     4   ar
    12     4     5    1
    13     4     6   ar
    14     6     1    1
    15     1    20    1
    16    20    21    1
    17    22    21    1
    18    22    28    1
    19    28    29   ar
    20    29    30   ar
    21    30    31   ar
    22    31    32   ar
    23    32    33   ar
    24    22    23    1
    25    23    24    1
    26    24    25    1
    27    25    34    1
    28    34    36    1
    29    36    37    1
    30    37    38    1
    31    25    26    1
    32    26    27    1
    33     6     7   ar
    34     7     8   ar
    35     8     9    1
    36    19    15   ar
    37     8     2   ar
    38    27    22    1
    39    33    28   ar
    40    38    36    1
    41    13    14    1
    42    34    35    1
@<TRIPOS>MOLECULE
*****
 38 42 0 0 0
SMALL
GASTEIGER

@<TRIPOS>ATOM
      1 O          61.3538   88.8379   12.0818 O.3     1  UNL1       -0.4731
      2 C          64.7236   91.8111   11.8484 C.ar    1  UNL1        0.1549
      3 C          63.7375   91.7053   10.7231 C.ar    1  UNL1        0.0553
      4 C          62.6143   90.7143   10.8009 C.ar    1  UNL1        0.1753
      5 F          61.6281   90.6084    9.6756 F       1  UNL1       -0.2009
      6 C          62.4771   89.8290   12.0041 C.ar    1  UNL1        0.1681
      7 C          63.4632   89.9348   13.1294 C.ar    1  UNL1        0.0702
      8 C          64.5865   90.9259   13.0515 C.ar    1  UNL1        0.1620
      9 F          65.5726   91.0317   14.1769 F       1  UNL1       -0.2026
     10 O          65.5287   93.2718   13.1592 O.2     1  UNL1       -0.1498
     11 S          65.8469   92.8022   11.7706 S.O2    1  UNL1        0.0773
     12 O          66.1652   92.3326   10.3820 O.2     1  UNL1       -0.1498
     13 N          66.9702   93.7932   11.6929 N.pl3   1  UNL1       -0.1925
     14 H          67.7207   93.7374   12.3275 H       1  UNL1        0.1758
     15 C          66.9500   94.8694   10.6481 C.ar    1  UNL1        0.1977
     16 N          67.9640   95.0606    9.5595 N.ar    1  UNL1       -0.1997
     17 C          67.5529   96.2526    8.7471 C.ar    1  UNL1        0.2082
     18 N          66.2847   96.7982    9.3337 N.ar    1  UNL1       -0.1840
     19 S          65.9120   95.9433   10.5086 S.2     1  UNL1        0.0508
     20 C          61.1152   87.8843   10.9489 C.3     1  UNL1        0.2058
     21 C          62.2592   87.1048   10.3711 C.3     1  UNL1        0.0514
     22 C          62.3950   85.6408   10.6678 C.3     1  UNL1        0.0226
     23 C          62.7857   86.2134   11.9980 C.3     1  UNL1        0.0055
     24 C          63.1600   85.2997   13.1271 C.3     1  UNL1        0.0160
     25 C          63.1438   83.8133   12.9260 C.3     1  UNL1        0.0540
     26 C          62.7531   83.2407   11.5958 C.3     1  UNL1        0.0160
     27 C          62.3787   84.1544   10.4667 C.3     1  UNL1        0.0055
     28 C          61.9572   85.5766    9.2346 C.ar    1  UNL1       -0.0227
     29 C          60.5942   86.0663    8.8441 C.ar    1  UNL1       -0.0043
     30 C          60.1563   86.0022    7.4108 C.ar    1  UNL1       -0.0003
     31 C          61.0814   85.4484    6.3681 C.ar    1  UNL1       -0.0000
     32 C          62.4444   84.9587    6.7586 C.ar    1  UNL1       -0.0003
     33 C          62.8823   85.0228    8.1918 C.ar    1  UNL1       -0.0043
     34 N          63.5181   82.8996   14.0551 N.3     1  UNL1       -0.2996
     35 H          63.2394   83.3676   14.9175 H       1  UNL1        0.1232
     36 C          62.9544   81.5108   14.1145 C.3     1  UNL1        0.0540
     37 C          61.7945   80.5884   14.3467 C.3     1  UNL1        0.0171
     38 C          63.1380   80.0277   13.9853 C.3     1  UNL1        0.0171
@<TRIPOS>BOND
     1    10    11    2
     2    11    12    2
     3    11    13    1
     4    13    15    1
     5    15    16   ar
     6    16    17   ar
     7    17    18   ar
     8    18    19   ar
     9    11     2    1
    10     2     3   ar
    11     3     4   ar
    12     4     5    1
    13     4     6   ar
    14     6     1    1
    15     1    20    1
    16    20    21    1
    17    22    21    1
    18    22    28    1
    19    28    29   ar
    20    29    30   ar
    21    30    31   ar
    22    31    32   ar
    23    32    33   ar
    24    22    23    1
    25    23    24    1
    26    24    25    1
    27    25    34    1
    28    34    36    1
    29    36    37    1
    30    37    38    1
    31    25    26    1
    32    26    27    1
    33     6     7   ar
    34     7     8   ar
    35     8     9    1
    36    19    15   ar
    37     8     2   ar
    38    27    22    1
    39    33    28   ar
    40    38    36    1
    41    13    14    1
    42    34    35    1
@<TRIPOS>MOLECULE
*****
 38 42 0 0 0
SMALL
GASTEIGER

@<TRIPOS>ATOM
      1 O          61.4573   86.9433   11.5219 O.3     1  UNL1       -0.4731
      2 C          63.7914   90.7893   11.6243 C.ar    1  UNL1        0.1549
      3 C          62.8928   90.4881   10.4617 C.ar    1  UNL1        0.0553
      4 C          62.1148   89.2061   10.4276 C.ar    1  UNL1        0.1753
      5 F          61.2162   88.9049    9.2649 F       1  UNL1       -0.2009
      6 C          62.2354   88.2254   11.5561 C.ar    1  UNL1        0.1681
      7 C          63.1340   88.5266   12.7187 C.ar    1  UNL1        0.0702
      8 C          63.9120   89.8085   12.7528 C.ar    1  UNL1        0.1620
      9 F          64.8106   90.1098   13.9155 F       1  UNL1       -0.2026
     10 O          64.4857   92.0822   13.1561 O.2     1  UNL1       -0.1498
     11 S          64.5695   92.0713   11.6585 S.O2    1  UNL1        0.0773
     12 O          64.6533   92.0605   10.1609 O.2     1  UNL1       -0.1498
     13 N          65.3475   93.3533   11.6927 N.pl3   1  UNL1       -0.1925
     14 H          65.0474   94.0961   12.2650 H       1  UNL1        0.1758
     15 C          66.5827   93.5036   10.8550 C.ar    1  UNL1        0.1977
     16 N          67.6689   92.4816   10.6945 N.ar    1  UNL1       -0.1997
     17 C          68.7060   93.0487    9.7710 C.ar    1  UNL1        0.2082
     18 N          68.2608   94.4211    9.3608 N.ar    1  UNL1       -0.1840
     19 S          66.9485   94.7023   10.0308 S.2     1  UNL1        0.0508
     20 C          62.1789   85.6287   11.4914 C.3     1  UNL1        0.2058
     21 C          63.1260   85.2671   12.5970 C.3     1  UNL1        0.0514
     22 C          62.9923   83.9476   13.2976 C.3     1  UNL1        0.0226
     23 C          62.9270   83.4922   11.8698 C.3     1  UNL1        0.0055
     24 C          62.7668   82.0347   11.5540 C.3     1  UNL1        0.0160
     25 C          62.6719   81.0323   12.6660 C.3     1  UNL1        0.0540
     26 C          62.7372   81.4877   14.0937 C.3     1  UNL1        0.0160
     27 C          62.8974   82.9452   14.4095 C.3     1  UNL1        0.0055
     28 C          63.1040   84.8611   14.4820 C.ar    1  UNL1       -0.0227
     29 C          62.1451   84.7249   15.6273 C.ar    1  UNL1       -0.0043
     30 C          62.2567   85.6385   16.8119 C.ar    1  UNL1       -0.0003
     31 C          63.3274   86.6883   16.8509 C.ar    1  UNL1       -0.0000
     32 C          64.2863   86.8245   15.7055 C.ar    1  UNL1       -0.0003
     33 C          64.1747   85.9110   14.5211 C.ar    1  UNL1       -0.0043
     34 N          62.5117   79.5748   12.3502 N.3     1  UNL1       -0.2996
     35 H          61.5623   79.3176   12.6202 H       1  UNL1        0.1232
     36 C          62.7102   79.0853   10.9463 C.3     1  UNL1        0.0540
     37 C          63.0721   77.9851    9.9930 C.3     1  UNL1        0.0171
     38 C          62.6922   79.3378    9.4678 C.3     1  UNL1        0.0171
@<TRIPOS>BOND
     1    10    11    2
     2    11    12    2
     3    11    13    1
     4    13    15    1
     5    15    16   ar
     6    16    17   ar
     7    17    18   ar
     8    18    19   ar
     9    11     2    1
    10     2     3   ar
    11     3     4   ar
    12     4     5    1
    13     4     6   ar
    14     6     1    1
    15     1    20    1
    16    20    21    1
    17    22    21    1
    18    22    28    1
    19    28    29   ar
    20    29    30   ar
    21    30    31   ar
    22    31    32   ar
    23    32    33   ar
    24    22    23    1
    25    23    24    1
    26    24    25    1
    27    25    34    1
    28    34    36    1
    29    36    37    1
    30    37    38    1
    31    25    26    1
    32    26    27    1
    33     6     7   ar
    34     7     8   ar
    35     8     9    1
    36    19    15   ar
    37     8     2   ar
    38    27    22    1
    39    33    28   ar
    40    38    36    1
    41    13    14    1
    42    34    35    1
@<TRIPOS>MOLECULE
*****
 38 42 0 0 0
SMALL
GASTEIGER

@<TRIPOS>ATOM
      1 O          63.5021   84.5954   10.4169 O.3     1  UNL1       -0.4731
      2 C          60.4348   87.1866    8.3854 C.ar    1  UNL1        0.1549
      3 C          61.3079   86.2790    7.5706 C.ar    1  UNL1        0.0553
      4 C          62.3303   85.4153    8.2478 C.ar    1  UNL1        0.1753
      5 F          63.2035   84.5076    7.4330 F       1  UNL1       -0.2009
      6 C          62.4796   85.4592    9.7397 C.ar    1  UNL1        0.1681
      7 C          61.6065   86.3668   10.5544 C.ar    1  UNL1        0.0702
      8 C          60.5841   87.2305    9.8773 C.ar    1  UNL1        0.1620
      9 F          59.7109   88.1382   10.6920 F       1  UNL1       -0.2026
     10 O          60.1387   89.2767    8.1758 O.2     1  UNL1       -0.1498
     11 S          59.4123   88.0504    7.7082 S.O2    1  UNL1        0.0773
     12 O          58.6860   86.8242    7.2406 O.2     1  UNL1       -0.1498
     13 N          58.3899   88.9142    7.0311 N.pl3   1  UNL1       -0.1925
     14 H          57.4320   88.7770    7.2120 H       1  UNL1        0.1758
     15 C          58.8271   89.9871    6.0782 C.ar    1  UNL1        0.1977
     16 N          60.2264   90.2146    5.5883 N.ar    1  UNL1       -0.1997
     17 C          60.2058   91.3889    4.6553 C.ar    1  UNL1        0.2082
     18 N          58.7936   91.8873    4.5686 N.ar    1  UNL1       -0.1840
     19 S          57.9415   91.0209    5.4481 S.2     1  UNL1        0.0508
     20 C          63.1038   83.7292   11.5749 C.3     1  UNL1        0.2058
     21 C          63.9629   83.6778   12.8035 C.3     1  UNL1        0.0514
     22 C          63.3827   84.0351   14.1398 C.3     1  UNL1        0.0226
     23 C          64.0505   85.3322   13.7905 C.3     1  UNL1        0.0055
     24 C          63.9761   86.4929   14.7377 C.3     1  UNL1        0.0160
     25 C          63.2340   86.3566   16.0342 C.3     1  UNL1        0.0540
     26 C          62.5664   85.0596   16.3834 C.3     1  UNL1        0.0160
     27 C          62.6407   83.8989   15.4362 C.3     1  UNL1        0.0055
     28 C          62.9165   82.6141   14.0249 C.ar    1  UNL1       -0.0227
     29 C          61.4748   82.2761   14.2640 C.ar    1  UNL1       -0.0043
     30 C          61.0085   80.8550   14.1492 C.ar    1  UNL1       -0.0003
     31 C          61.9840   79.7719   13.7952 C.ar    1  UNL1       -0.0000
     32 C          63.4258   80.1099   13.5561 C.ar    1  UNL1       -0.0003
     33 C          63.8921   81.5310   13.6710 C.ar    1  UNL1       -0.0043
     34 N          63.1597   87.5173   16.9813 N.3     1  UNL1       -0.2996
     35 H          63.8940   87.3784   17.6755 H       1  UNL1        0.1232
     36 C          63.3111   88.9175   16.4651 C.3     1  UNL1        0.0540
     37 C          63.4989   90.3835   16.7216 C.3     1  UNL1        0.0171
     38 C          63.3857   89.8768   15.3143 C.3     1  UNL1        0.0171
@<TRIPOS>BOND
     1    10    11    2
     2    11    12    2
     3    11    13    1
     4    13    15    1
     5    15    16   ar
     6    16    17   ar
     7    17    18   ar
     8    18    19   ar
     9    11     2    1
    10     2     3   ar
    11     3     4   ar
    12     4     5    1
    13     4     6   ar
    14     6     1    1
    15     1    20    1
    16    20    21    1
    17    22    21    1
    18    22    28    1
    19    28    29   ar
    20    29    30   ar
    21    30    31   ar
    22    31    32   ar
    23    32    33   ar
    24    22    23    1
    25    23    24    1
    26    24    25    1
    27    25    34    1
    28    34    36    1
    29    36    37    1
    30    37    38    1
    31    25    26    1
    32    26    27    1
    33     6     7   ar
    34     7     8   ar
    35     8     9    1
    36    19    15   ar
    37     8     2   ar
    38    27    22    1
    39    33    28   ar
    40    38    36    1
    41    13    14    1
    42    34    35    1
