@<TRIPOS>MOLECULE
*****
 64 71 0 0 0
SMALL
GASTEIGER

@<TRIPOS>ATOM
      1 N          65.6912   89.2762   14.5458 N.3     1  UNL1       -0.1862
      2 C          65.9756   88.0305   15.3314 C.3     1  UNL1        0.1775
      3 C          65.1708   86.7888   15.0858 C.2     1  UNL1        0.2452
      4 O          65.4553   85.5430   15.8715 O.2     1  UNL1       -0.2732
      5 N          64.0815   86.7928   14.0547 N.am    1  UNL1       -0.2541
      6 C          63.2766   85.5510   13.8091 C.3     1  UNL1        0.1577
      7 C          62.1873   85.5550   12.7780 C.2     1  UNL1        0.2445
      8 O          61.3824   84.3132   12.5324 O.2     1  UNL1       -0.2731
      9 N          61.9028   86.8008   11.9923 N.am    1  UNL1       -0.2705
     10 C          62.7076   88.0425   12.2379 C.3     1  UNL1        0.1359
     11 C          63.7970   88.0385   13.2691 C.3     1  UNL1        0.1908
     12 N          64.6018   89.2802   13.5146 N.am    1  UNL1       -0.1863
     13 C          64.3173   90.5260   12.7290 C.2     1  UNL1        0.3191
     14 O          63.2280   90.5300   11.6978 O.2     1  UNL1       -0.2512
     15 N          65.1221   91.7677   12.9745 N.am    1  UNL1       -0.2836
     16 H          65.8371   91.7651   13.6513 H       1  UNL1        0.1513
     17 C          66.4960   90.5180   14.7913 C.3     1  UNL1        0.1188
     18 C          66.8196   92.7690   16.0475 C.2     1  UNL1       -0.0034
     19 C          65.9579   91.5961   15.6847 C.2     1  UNL1       -0.0071
     20 C          63.5611   84.3053   14.5947 C.3     1  UNL1        0.0556
     21 C          63.2850   82.9595   13.9926 C.ar    1  UNL1       -0.0198
     22 C          64.1288   82.4578   12.8585 C.ar    1  UNL1       -0.0011
     23 C          63.8527   81.1120   12.2564 C.ar    1  UNL1        0.0363
     24 C          62.7328   80.2678   12.7885 C.ar    1  UNL1        0.1337
     25 O          62.4567   78.9220   12.1864 O.3     1  UNL1       -0.5055
     26 C          61.8889   80.7694   13.9227 C.ar    1  UNL1        0.0363
     27 C          62.1650   82.1152   14.5248 C.ar    1  UNL1       -0.0011
     28 H          62.9838   78.6086   11.4779 H       1  UNL1        0.2922
     29 C          60.8134   86.8047   10.9612 C.3     1  UNL1        0.1217
     30 C          60.4154   88.0887   10.2955 C.ar    1  UNL1        0.0135
     31 C          60.0744   89.2900   11.1266 C.ar    1  UNL1       -0.0012
     32 C          59.6764   90.5740   10.4610 C.ar    1  UNL1       -0.0002
     33 C          59.6195   90.6567    8.9644 C.ar    1  UNL1        0.0015
     34 C          59.9605   89.4554    8.1334 C.ar    1  UNL1        0.0170
     35 C          59.9935   89.2379    6.6496 C.ar    1  UNL1        0.0186
     36 C          60.4119   87.8196    6.3981 C.ar    1  UNL1        0.0759
     37 N          60.6374   87.1605    7.7265 N.ar    1  UNL1       -0.3242
     38 C          61.0666   85.7398    7.9442 C.3     1  UNL1        0.1305
     39 C          60.3585   88.1714    8.7989 C.ar    1  UNL1        0.0575
     40 C          59.6657   90.2595    5.6012 C.ar    1  UNL1        0.0016
     41 C          58.2390   90.6546    5.3592 C.ar    1  UNL1        0.0013
     42 C          57.9112   91.6762    4.3109 C.ar    1  UNL1        0.0147
     43 C          59.0101   92.3027    3.5047 C.ar    1  UNL1        0.0516
     44 C          60.4367   91.9076    3.7467 C.ar    1  UNL1        0.0147
     45 C          60.7645   90.8860    4.7949 C.ar    1  UNL1        0.0013
     46 N          58.6822   93.3242    2.4564 N.am    1  UNL1       -0.2680
     47 C          59.3963   93.3013    1.1374 C.2     1  UNL1        0.3103
     48 O          60.4383   92.2568    0.8668 O.2     1  UNL1       -0.2521
     49 N          59.0684   94.3229    0.0892 N.am    1  UNL1       -0.2380
     50 H          57.9983   94.0098    2.6340 H       1  UNL1        0.1564
     51 H          58.3845   95.0085    0.2669 H       1  UNL1        0.1593
     52 C          59.7825   94.3000   -1.2297 C.ar    1  UNL1        0.2239
     53 N          61.2363   94.6623   -1.3018 N.ar    1  UNL1       -0.2119
     54 C          61.9505   94.6393   -2.6207 C.ar    1  UNL1        0.1034
     55 C          61.2107   94.2540   -3.8676 C.ar    1  UNL1        0.0414
     56 C          59.7570   93.8917   -3.7954 C.ar    1  UNL1        0.1034
     57 N          59.0429   93.9147   -2.4765 N.ar    1  UNL1       -0.2119
     58 C          64.8377   93.0135   12.1889 C.3     1  UNL1        0.1177
     59 C          65.8462   93.5256   11.2038 C.ar    1  UNL1       -0.0025
     60 C          65.9278   94.9940   10.9088 C.ar    1  UNL1       -0.0026
     61 C          66.9364   95.5062    9.9237 C.ar    1  UNL1       -0.0003
     62 C          67.8634   94.5500    9.2336 C.ar    1  UNL1       -0.0000
     63 C          67.7818   93.0815    9.5286 C.ar    1  UNL1       -0.0003
     64 C          66.7732   92.5693   10.5137 C.ar    1  UNL1       -0.0026
@<TRIPOS>BOND
     1    18    19    2
     2    19    17    1
     3    17     1    1
     4     1     2    1
     5     2     3    1
     6     3     4    2
     7     3     5   am
     8     5     6    1
     9     6    20    1
    10    20    21    1
    11    21    22   ar
    12    22    23   ar
    13    23    24   ar
    14    24    25    1
    15    24    26   ar
    16    26    27   ar
    17     6     7    1
    18     7     8    2
    19     7     9   am
    20     9    29    1
    21    29    30    1
    22    30    31   ar
    23    31    32   ar
    24    32    33   ar
    25    33    34   ar
    26    34    35   ar
    27    35    40    1
    28    40    41   ar
    29    41    42   ar
    30    42    43   ar
    31    43    46    1
    32    46    47   am
    33    47    48    2
    34    47    49   am
    35    49    52    1
    36    52    53   ar
    37    53    54   ar
    38    54    55   ar
    39    55    56   ar
    40    56    57   ar
    41    43    44   ar
    42    44    45   ar
    43    35    36   ar
    44    36    37   ar
    45    37    38    1
    46    37    39   ar
    47     9    10    1
    48    11    10    1
    49    11    12    1
    50    12    13   am
    51    13    14    2
    52    13    15   am
    53    15    58    1
    54    58    59    1
    55    59    60   ar
    56    60    61   ar
    57    61    62   ar
    58    62    63   ar
    59    63    64   ar
    60    12     1    1
    61    64    59   ar
    62    11     5    1
    63    27    21   ar
    64    39    30   ar
    65    39    34   ar
    66    45    40   ar
    67    57    52   ar
    68    25    28    1
    69    46    50    1
    70    49    51    1
    71    15    16    1
@<TRIPOS>MOLECULE
*****
 64 71 0 0 0
SMALL
GASTEIGER

@<TRIPOS>ATOM
      1 N          64.5567   83.1067   13.3015 N.3     1  UNL1       -0.1862
      2 C          65.1793   83.9734   14.3555 C.3     1  UNL1        0.1775
      3 C          64.7713   85.4114   14.4814 C.2     1  UNL1        0.2452
      4 O          65.3941   86.2782   15.5355 O.2     1  UNL1       -0.2732
      5 N          63.7407   85.9825   13.5533 N.am    1  UNL1       -0.2541
      6 C          63.3327   87.4205   13.6792 C.3     1  UNL1        0.1577
      7 C          62.3020   87.9917   12.7511 C.2     1  UNL1        0.2445
      8 O          61.8940   89.4296   12.8769 O.2     1  UNL1       -0.2731
      9 N          61.6793   87.1249   11.6970 N.am    1  UNL1       -0.2705
     10 C          62.0873   85.6869   11.5711 C.3     1  UNL1        0.1359
     11 C          63.1180   85.1158   12.4993 C.3     1  UNL1        0.1908
     12 N          63.5260   83.6778   12.3734 N.am    1  UNL1       -0.1863
     13 C          62.9032   82.8110   11.3194 C.2     1  UNL1        0.3191
     14 O          61.8726   83.3822   10.3913 O.2     1  UNL1       -0.2512
     15 N          63.3112   81.3731   11.1935 N.am    1  UNL1       -0.2836
     16 H          63.9877   80.9982   11.8027 H       1  UNL1        0.1513
     17 C          64.9647   81.6687   13.1757 C.3     1  UNL1        0.1188
     18 C          62.7741   80.8387   14.2993 C.2     1  UNL1       -0.0034
     19 C          64.2047   80.6062   13.9128 C.2     1  UNL1       -0.0071
     20 C          63.9554   88.2873   14.7332 C.3     1  UNL1        0.0556
     21 C          64.4853   89.6433   14.3722 C.ar    1  UNL1       -0.0198
     22 C          65.0946   90.5161   15.4291 C.ar    1  UNL1       -0.0011
     23 C          65.6245   91.8722   15.0682 C.ar    1  UNL1        0.0363
     24 C          65.5452   92.3554   13.6504 C.ar    1  UNL1        0.1337
     25 O          66.0752   93.7115   13.2895 O.3     1  UNL1       -0.5055
     26 C          64.9360   91.4826   12.5935 C.ar    1  UNL1        0.0363
     27 C          64.4060   90.1266   12.9544 C.ar    1  UNL1       -0.0011
     28 H          66.4558   94.2567   13.9497 H       1  UNL1        0.2922
     29 C          60.6486   87.6961   10.7689 C.3     1  UNL1        0.1217
     30 C          61.0028   88.8428    9.8691 C.ar    1  UNL1        0.0135
     31 C          62.0278   89.8481   10.3035 C.ar    1  UNL1       -0.0012
     32 C          62.3821   90.9948    9.4038 C.ar    1  UNL1       -0.0002
     33 C          61.7112   91.1362    8.0696 C.ar    1  UNL1        0.0015
     34 C          60.6862   90.1309    7.6352 C.ar    1  UNL1        0.0170
     35 C          59.8645   90.0109    6.3861 C.ar    1  UNL1        0.0186
     36 C          59.0024   88.7901    6.5138 C.ar    1  UNL1        0.0759
     37 N          59.2914   88.1555    7.8419 N.ar    1  UNL1       -0.3242
     38 C          58.6519   86.9108    8.3821 C.3     1  UNL1        0.1305
     39 C          60.3320   88.9842    8.5350 C.ar    1  UNL1        0.0575
     40 C          59.8988   90.9474    5.2148 C.ar    1  UNL1        0.0016
     41 C          58.6311   91.5814    4.7240 C.ar    1  UNL1        0.0013
     42 C          58.6655   92.5178    3.5528 C.ar    1  UNL1        0.0147
     43 C          59.9676   92.8204    2.8723 C.ar    1  UNL1        0.0516
     44 C          61.2353   92.1864    3.3631 C.ar    1  UNL1        0.0147
     45 C          61.2009   91.2500    4.5343 C.ar    1  UNL1        0.0013
     46 N          60.0019   93.7568    1.7011 N.am    1  UNL1       -0.2680
     47 C          61.0599   93.6035    0.6488 C.2     1  UNL1        0.3103
     48 O          62.0836   92.5137    0.7679 O.2     1  UNL1       -0.2521
     49 N          61.0941   94.5400   -0.5224 N.am    1  UNL1       -0.2380
     50 H          59.3300   94.4721    1.6229 H       1  UNL1        0.1564
     51 H          60.4222   95.2553   -0.6005 H       1  UNL1        0.1593
     52 C          62.1522   94.3866   -1.5745 C.ar    1  UNL1        0.2239
     53 N          63.4395   95.1480   -1.4602 N.ar    1  UNL1       -0.2119
     54 C          64.4976   94.9946   -2.5124 C.ar    1  UNL1        0.1034
     55 C          64.2682   94.0798   -3.6789 C.ar    1  UNL1        0.0414
     56 C          62.9809   93.3184   -3.7932 C.ar    1  UNL1        0.1034
     57 N          61.9229   93.4719   -2.7410 N.ar    1  UNL1       -0.2119
     58 C          62.6886   80.5063   10.1395 C.3     1  UNL1        0.1177
     59 C          63.0866   79.0648   10.0224 C.ar    1  UNL1       -0.0025
     60 C          64.0471   78.6365    8.9529 C.ar    1  UNL1       -0.0026
     61 C          64.4452   77.1951    8.8358 C.ar    1  UNL1       -0.0003
     62 C          63.8828   76.1819    9.7882 C.ar    1  UNL1       -0.0000
     63 C          62.9222   76.6102   10.8578 C.ar    1  UNL1       -0.0003
     64 C          62.5242   78.0517   10.9749 C.ar    1  UNL1       -0.0026
@<TRIPOS>BOND
     1    18    19    2
     2    19    17    1
     3    17     1    1
     4     1     2    1
     5     2     3    1
     6     3     4    2
     7     3     5   am
     8     5     6    1
     9     6    20    1
    10    20    21    1
    11    21    22   ar
    12    22    23   ar
    13    23    24   ar
    14    24    25    1
    15    24    26   ar
    16    26    27   ar
    17     6     7    1
    18     7     8    2
    19     7     9   am
    20     9    29    1
    21    29    30    1
    22    30    31   ar
    23    31    32   ar
    24    32    33   ar
    25    33    34   ar
    26    34    35   ar
    27    35    40    1
    28    40    41   ar
    29    41    42   ar
    30    42    43   ar
    31    43    46    1
    32    46    47   am
    33    47    48    2
    34    47    49   am
    35    49    52    1
    36    52    53   ar
    37    53    54   ar
    38    54    55   ar
    39    55    56   ar
    40    56    57   ar
    41    43    44   ar
    42    44    45   ar
    43    35    36   ar
    44    36    37   ar
    45    37    38    1
    46    37    39   ar
    47     9    10    1
    48    11    10    1
    49    11    12    1
    50    12    13   am
    51    13    14    2
    52    13    15   am
    53    15    58    1
    54    58    59    1
    55    59    60   ar
    56    60    61   ar
    57    61    62   ar
    58    62    63   ar
    59    63    64   ar
    60    12     1    1
    61    64    59   ar
    62    11     5    1
    63    27    21   ar
    64    39    30   ar
    65    39    34   ar
    66    45    40   ar
    67    57    52   ar
    68    25    28    1
    69    46    50    1
    70    49    51    1
    71    15    16    1
@<TRIPOS>MOLECULE
*****
 64 71 0 0 0
SMALL
GASTEIGER

@<TRIPOS>ATOM
      1 N          64.4837   83.1175   13.3636 N.3     1  UNL1       -0.1862
      2 C          65.0642   83.9660   14.4558 C.3     1  UNL1        0.1775
      3 C          64.6496   85.4012   14.5912 C.2     1  UNL1        0.2452
      4 O          65.2302   86.2498   15.6835 O.2     1  UNL1       -0.2732
      5 N          63.6545   85.9879   13.6344 N.am    1  UNL1       -0.2541
      6 C          63.2398   87.4231   13.7698 C.3     1  UNL1        0.1577
      7 C          62.2447   88.0097   12.8130 C.2     1  UNL1        0.2445
      8 O          61.8301   89.4449   12.9484 O.2     1  UNL1       -0.2731
      9 N          61.6642   87.1612   11.7207 N.am    1  UNL1       -0.2705
     10 C          62.0788   85.7260   11.5853 C.3     1  UNL1        0.1359
     11 C          63.0740   85.1394   12.5422 C.3     1  UNL1        0.1908
     12 N          63.4886   83.7042   12.4068 N.am    1  UNL1       -0.1863
     13 C          62.9080   82.8556   11.3145 C.2     1  UNL1        0.3191
     14 O          61.9129   83.4423   10.3577 O.2     1  UNL1       -0.2512
     15 N          63.3226   81.4204   11.1791 N.am    1  UNL1       -0.2836
     16 H          63.9758   81.0354   11.8071 H       1  UNL1        0.1513
     17 C          64.8983   81.6823   13.2282 C.3     1  UNL1        0.1188
     18 C          62.6753   80.7188   14.1660 C.2     1  UNL1       -0.0034
     19 C          64.1599   80.6143   13.9791 C.2     1  UNL1       -0.0071
     20 C          63.8203   88.2716   14.8620 C.3     1  UNL1        0.0556
     21 C          64.3537   89.6377   14.5472 C.ar    1  UNL1       -0.0198
     22 C          64.6551   90.5995   15.6581 C.ar    1  UNL1       -0.0011
     23 C          65.1885   91.9657   15.3433 C.ar    1  UNL1        0.0363
     24 C          65.4205   92.3701   13.9176 C.ar    1  UNL1        0.1337
     25 O          65.9539   93.7362   13.6028 O.3     1  UNL1       -0.5055
     26 C          65.1191   91.4082   12.8066 C.ar    1  UNL1        0.0363
     27 C          64.5857   90.0421   13.1214 C.ar    1  UNL1       -0.0011
     28 H          66.1422   94.3370   14.2967 H       1  UNL1        0.2922
     29 C          60.6690   87.7478   10.7639 C.3     1  UNL1        0.1217
     30 C          61.0661   88.8887    9.8746 C.ar    1  UNL1        0.0135
     31 C          62.0951   89.8773   10.3373 C.ar    1  UNL1       -0.0012
     32 C          62.4922   91.0181    9.4481 C.ar    1  UNL1       -0.0002
     33 C          61.8604   91.1704    8.0962 C.ar    1  UNL1        0.0015
     34 C          60.8314   90.1818    7.6335 C.ar    1  UNL1        0.0170
     35 C          60.0423   90.0751    6.3624 C.ar    1  UNL1        0.0186
     36 C          59.1574   88.8684    6.4661 C.ar    1  UNL1        0.0759
     37 N          59.3997   88.2292    7.8012 N.ar    1  UNL1       -0.3242
     38 C          58.7258   86.9950    8.3232 C.3     1  UNL1        0.1305
     39 C          60.4343   89.0410    8.5228 C.ar    1  UNL1        0.0575
     40 C          60.1236   91.0110    5.1929 C.ar    1  UNL1        0.0016
     41 C          58.9196   91.8065    4.7837 C.ar    1  UNL1        0.0013
     42 C          59.0010   92.7422    3.6142 C.ar    1  UNL1        0.0147
     43 C          60.2865   92.8825    2.8540 C.ar    1  UNL1        0.0516
     44 C          61.4905   92.0871    3.2632 C.ar    1  UNL1        0.0147
     45 C          61.4091   91.1513    4.4327 C.ar    1  UNL1        0.0013
     46 N          60.3678   93.8183    1.6846 N.am    1  UNL1       -0.2680
     47 C          59.4767   93.6124    0.4956 C.2     1  UNL1        0.3103
     48 O          58.5042   92.4706    0.4762 O.2     1  UNL1       -0.2521
     49 N          59.5581   94.5482   -0.6738 N.am    1  UNL1       -0.2380
     50 H          61.0062   94.5678    1.6973 H       1  UNL1        0.1564
     51 H          60.1965   95.2977   -0.6610 H       1  UNL1        0.1593
     52 C          58.6670   94.3422   -1.8626 C.ar    1  UNL1        0.2239
     53 N          57.3429   95.0429   -1.9378 N.ar    1  UNL1       -0.2119
     54 C          56.4517   94.8369   -3.1267 C.ar    1  UNL1        0.1034
     55 C          56.8847   93.9301   -4.2404 C.ar    1  UNL1        0.0414
     56 C          58.2089   93.2294   -4.1653 C.ar    1  UNL1        0.1034
     57 N          59.1000   93.4355   -2.9763 N.ar    1  UNL1       -0.2119
     58 C          62.7421   80.5719   10.0869 C.3     1  UNL1        0.1177
     59 C          63.0970   79.1172    9.9984 C.ar    1  UNL1       -0.0025
     60 C          62.5026   78.1399   10.9687 C.ar    1  UNL1       -0.0026
     61 C          62.8574   76.6851   10.8803 C.ar    1  UNL1       -0.0003
     62 C          63.8067   76.2077    9.8215 C.ar    1  UNL1       -0.0000
     63 C          64.4011   77.1850    8.8512 C.ar    1  UNL1       -0.0003
     64 C          64.0463   78.6398    8.9396 C.ar    1  UNL1       -0.0026
@<TRIPOS>BOND
     1    18    19    2
     2    19    17    1
     3    17     1    1
     4     1     2    1
     5     2     3    1
     6     3     4    2
     7     3     5   am
     8     5     6    1
     9     6    20    1
    10    20    21    1
    11    21    22   ar
    12    22    23   ar
    13    23    24   ar
    14    24    25    1
    15    24    26   ar
    16    26    27   ar
    17     6     7    1
    18     7     8    2
    19     7     9   am
    20     9    29    1
    21    29    30    1
    22    30    31   ar
    23    31    32   ar
    24    32    33   ar
    25    33    34   ar
    26    34    35   ar
    27    35    40    1
    28    40    41   ar
    29    41    42   ar
    30    42    43   ar
    31    43    46    1
    32    46    47   am
    33    47    48    2
    34    47    49   am
    35    49    52    1
    36    52    53   ar
    37    53    54   ar
    38    54    55   ar
    39    55    56   ar
    40    56    57   ar
    41    43    44   ar
    42    44    45   ar
    43    35    36   ar
    44    36    37   ar
    45    37    38    1
    46    37    39   ar
    47     9    10    1
    48    11    10    1
    49    11    12    1
    50    12    13   am
    51    13    14    2
    52    13    15   am
    53    15    58    1
    54    58    59    1
    55    59    60   ar
    56    60    61   ar
    57    61    62   ar
    58    62    63   ar
    59    63    64   ar
    60    12     1    1
    61    64    59   ar
    62    11     5    1
    63    27    21   ar
    64    39    30   ar
    65    39    34   ar
    66    45    40   ar
    67    57    52   ar
    68    25    28    1
    69    46    50    1
    70    49    51    1
    71    15    16    1
