@<TRIPOS>MOLECULE
*****
 22 25 0 0 0
SMALL
GASTEIGER

@<TRIPOS>ATOM
      1 O          67.1655   93.5781   11.0201 O.2     1  UNL1       -0.2680
      2 C          66.7060   92.7945   12.2137 C.2     1  UNL1        0.2687
      3 N          67.5194   92.8016   13.4740 N.am    1  UNL1       -0.1741
      4 C          67.0599   92.0180   14.6676 C.2     1  UNL1        0.0886
      5 C          65.7870   91.2272   14.6010 C.2     1  UNL1        0.0143
      6 C          64.9736   91.2202   13.3407 C.2     1  UNL1       -0.0085
      7 C          63.7007   90.4294   13.2741 C.3     1  UNL1        0.0936
      8 C          62.8873   90.4224   12.0138 C.2     1  UNL1        0.1171
      9 C          63.3468   91.2060   10.8202 C.2     1  UNL1        0.0360
     10 C          64.6197   91.9967   10.8868 C.2     1  UNL1        0.0074
     11 C          65.4331   92.0038   12.1471 C.2     1  UNL1        0.0520
     12 N          61.6143   89.6316   11.9472 N.pl3   1  UNL1       -0.1990
     13 H          60.8026   89.9670   12.3921 H       1  UNL1        0.2983
     14 C          61.5781   88.3300   11.2027 C.2     1  UNL1        0.3705
     15 N          62.2761   87.0646   11.6046 N.2     1  UNL1        0.0819
     16 N          61.9669   86.0177   10.5759 N.2     1  UNL1       -0.0365
     17 C          61.0777   86.6361    9.5381 C.2     1  UNL1        0.1346
     18 C          60.4558   86.0826    8.2904 C.3     1  UNL1        0.0792
     19 C          59.5936   86.9579    7.4300 C.2     1  UNL1        0.0010
     20 C          59.3533   88.3870    7.8174 C.2     1  UNL1        0.0950
     21 N          59.9752   88.9406    9.0651 N.2     1  UNL1       -0.2354
     22 C          60.8374   88.0651    9.9255 C.2     1  UNL1        0.1833
@<TRIPOS>BOND
     1     1     2    2
     2     2     3    1
     3     3     4    2
     4     4     5    1
     5     5     6    2
     6     6     7    1
     7     7     8    1
     8     8    12    1
     9    12    14    1
    10    14    15    2
    11    15    16    1
    12    16    17    2
    13    17    18    1
    14    18    19    1
    15    19    20    2
    16    20    21    1
    17    21    22    2
    18     8     9    2
    19     9    10    1
    20    10    11    2
    21    11     2    1
    22    11     6    1
    23    22    14    1
    24    22    17    1
    25    12    13    1
@<TRIPOS>MOLECULE
*****
 22 25 0 0 0
SMALL
GASTEIGER

@<TRIPOS>ATOM
      1 O          65.9687   93.8448   11.3165 O.2     1  UNL1       -0.2680
      2 C          65.6676   92.8772   12.4224 C.2     1  UNL1        0.2687
      3 N          66.3702   93.0036   13.7416 N.am    1  UNL1       -0.1741
      4 C          66.0691   92.0360   14.8474 C.2     1  UNL1        0.0886
      5 C          65.0654   90.9419   14.6341 C.2     1  UNL1        0.0143
      6 C          64.3628   90.8155   13.3150 C.2     1  UNL1       -0.0085
      7 C          63.3591   89.7213   13.1016 C.3     1  UNL1        0.0936
      8 C          62.6565   89.5949   11.7824 C.2     1  UNL1        0.1171
      9 C          62.9576   90.5625   10.6765 C.2     1  UNL1        0.0360
     10 C          63.9613   91.6566   10.8898 C.2     1  UNL1        0.0074
     11 C          64.6639   91.7831   12.2091 C.2     1  UNL1        0.0520
     12 N          61.6527   88.5008   11.5690 N.pl3   1  UNL1       -0.1990
     13 H          60.7350   88.6012   11.9109 H       1  UNL1        0.2983
     14 C          62.0473   87.2537   10.8349 C.2     1  UNL1        0.3705
     15 N          61.9756   87.0439    9.3513 N.2     1  UNL1        0.0819
     16 N          62.4669   85.6580    9.0549 N.2     1  UNL1       -0.0365
     17 C          62.8422   85.0112   10.3553 C.2     1  UNL1        0.1346
     18 C          63.3866   83.6517   10.6798 C.3     1  UNL1        0.0792
     19 C          63.6717   83.2783   12.1043 C.2     1  UNL1        0.0010
     20 C          63.4124   84.2645   13.2044 C.2     1  UNL1        0.0950
     21 N          62.8679   85.6241   12.8799 N.2     1  UNL1       -0.2354
     22 C          62.5829   85.9974   11.4553 C.2     1  UNL1        0.1833
@<TRIPOS>BOND
     1     1     2    2
     2     2     3    1
     3     3     4    2
     4     4     5    1
     5     5     6    2
     6     6     7    1
     7     7     8    1
     8     8    12    1
     9    12    14    1
    10    14    15    2
    11    15    16    1
    12    16    17    2
    13    17    18    1
    14    18    19    1
    15    19    20    2
    16    20    21    1
    17    21    22    2
    18     8     9    2
    19     9    10    1
    20    10    11    2
    21    11     2    1
    22    11     6    1
    23    22    14    1
    24    22    17    1
    25    12    13    1
@<TRIPOS>MOLECULE
*****
 22 25 0 0 0
SMALL
GASTEIGER

@<TRIPOS>ATOM
      1 O          67.0332   92.2792   14.8238 O.2     1  UNL1       -0.2680
      2 C          66.3809   92.4589   13.4850 C.2     1  UNL1        0.2687
      3 N          66.8870   93.5070   12.5388 N.am    1  UNL1       -0.1741
      4 C          66.2346   93.6867   11.2000 C.2     1  UNL1        0.0886
      5 C          65.0763   92.8183   10.8076 C.2     1  UNL1        0.0143
      6 C          64.5702   91.7703   11.7538 C.2     1  UNL1       -0.0085
      7 C          63.4117   90.9019   11.3614 C.3     1  UNL1        0.0936
      8 C          62.9056   89.8539   12.3076 C.2     1  UNL1        0.1171
      9 C          63.5579   89.6742   13.6464 C.2     1  UNL1        0.0360
     10 C          64.7163   90.5425   14.0388 C.2     1  UNL1        0.0074
     11 C          65.2225   91.5906   13.0926 C.2     1  UNL1        0.0520
     12 N          61.7471   88.9855   11.9152 N.pl3   1  UNL1       -0.1990
     13 H          60.8448   89.1858   12.2542 H       1  UNL1        0.2983
     14 C          61.9635   87.8120   11.0063 C.2     1  UNL1        0.3705
     15 N          61.6924   87.7773    9.5314 N.2     1  UNL1        0.0819
     16 N          62.0503   86.4110    9.0263 N.2     1  UNL1       -0.0365
     17 C          62.5428   85.6013   10.1891 C.2     1  UNL1        0.1346
     18 C          63.0331   84.1875   10.2918 C.3     1  UNL1        0.0792
     19 C          63.4698   83.6394   11.6180 C.2     1  UNL1        0.0010
     20 C          63.4161   84.5053   12.8417 C.2     1  UNL1        0.0950
     21 N          62.9258   85.9192   12.7391 N.2     1  UNL1       -0.2354
     22 C          62.4891   86.4672   11.4128 C.2     1  UNL1        0.1833
@<TRIPOS>BOND
     1     1     2    2
     2     2     3    1
     3     3     4    2
     4     4     5    1
     5     5     6    2
     6     6     7    1
     7     7     8    1
     8     8    12    1
     9    12    14    1
    10    14    15    2
    11    15    16    1
    12    16    17    2
    13    17    18    1
    14    18    19    1
    15    19    20    2
    16    20    21    1
    17    21    22    2
    18     8     9    2
    19     9    10    1
    20    10    11    2
    21    11     2    1
    22    11     6    1
    23    22    14    1
    24    22    17    1
    25    12    13    1
@<TRIPOS>MOLECULE
*****
 22 25 0 0 0
SMALL
GASTEIGER

@<TRIPOS>ATOM
      1 O          64.1980   83.6976   14.7027 O.2     1  UNL1       -0.2680
      2 C          63.6000   84.4338   13.5406 C.2     1  UNL1        0.2687
      3 N          62.9600   83.6712   12.4188 N.am    1  UNL1       -0.1741
      4 C          62.3620   84.4074   11.2567 C.2     1  UNL1        0.0886
      5 C          62.4041   85.9062   11.2165 C.2     1  UNL1        0.0143
      6 C          63.0442   86.6688   12.3383 C.2     1  UNL1       -0.0085
      7 C          63.0864   88.1678   12.2982 C.3     1  UNL1        0.0936
      8 C          63.7264   88.9304   13.4200 C.2     1  UNL1        0.1171
      9 C          64.3244   88.1942   14.5821 C.2     1  UNL1        0.0360
     10 C          64.2823   86.6954   14.6223 C.2     1  UNL1        0.0074
     11 C          63.6422   85.9326   13.5004 C.2     1  UNL1        0.0520
     12 N          63.7686   90.4293   13.3799 N.pl3   1  UNL1       -0.1990
     13 H          63.3990   90.9116   12.6052 H       1  UNL1        0.2983
     14 C          64.3737   91.1934   14.5200 C.2     1  UNL1        0.3705
     15 N          63.6675   91.6089   15.7764 N.2     1  UNL1        0.0819
     16 N          64.6487   92.3485   16.6368 N.2     1  UNL1       -0.0365
     17 C          65.9614   92.3901   15.9120 C.2     1  UNL1        0.1346
     18 C          67.2895   92.9858   16.2744 C.3     1  UNL1        0.0792
     19 C          68.4476   92.8677   15.3286 C.2     1  UNL1        0.0010
     20 C          68.2777   92.1538   14.0202 C.2     1  UNL1        0.0950
     21 N          66.9496   91.5581   13.6579 N.2     1  UNL1       -0.2354
     22 C          65.7914   91.6762   14.6038 C.2     1  UNL1        0.1833
@<TRIPOS>BOND
     1     1     2    2
     2     2     3    1
     3     3     4    2
     4     4     5    1
     5     5     6    2
     6     6     7    1
     7     7     8    1
     8     8    12    1
     9    12    14    1
    10    14    15    2
    11    15    16    1
    12    16    17    2
    13    17    18    1
    14    18    19    1
    15    19    20    2
    16    20    21    1
    17    21    22    2
    18     8     9    2
    19     9    10    1
    20    10    11    2
    21    11     2    1
    22    11     6    1
    23    22    14    1
    24    22    17    1
    25    12    13    1
@<TRIPOS>MOLECULE
*****
 22 25 0 0 0
SMALL
GASTEIGER

@<TRIPOS>ATOM
      1 O          61.6585   85.7925   11.8359 O.2     1  UNL1       -0.2680
      2 C          61.3769   86.9499   10.9242 C.2     1  UNL1        0.2687
      3 N          60.4237   86.7869    9.7776 N.am    1  UNL1       -0.1741
      4 C          60.1422   87.9443    8.8659 C.2     1  UNL1        0.0886
      5 C          60.8138   89.2647    9.1009 C.2     1  UNL1        0.0143
      6 C          61.7669   89.4278   10.2475 C.2     1  UNL1       -0.0085
      7 C          62.4386   90.7483   10.4826 C.3     1  UNL1        0.0936
      8 C          63.3917   90.9114   11.6292 C.2     1  UNL1        0.1171
      9 C          63.6733   89.7540   12.5409 C.2     1  UNL1        0.0360
     10 C          63.0017   88.4335   12.3059 C.2     1  UNL1        0.0074
     11 C          62.0485   88.2704   11.1592 C.2     1  UNL1        0.0520
     12 N          64.0634   92.2319   11.8643 N.pl3   1  UNL1       -0.1990
     13 H          63.5551   93.0684   11.7587 H       1  UNL1        0.2983
     14 C          65.5094   92.2779   12.2601 C.2     1  UNL1        0.3705
     15 N          66.6813   92.2417   11.3245 N.2     1  UNL1        0.0819
     16 N          67.9337   92.3096   12.1472 N.2     1  UNL1       -0.0365
     17 C          67.5358   92.3878   13.5914 C.2     1  UNL1        0.1346
     18 C          68.3442   92.4743   14.8520 C.3     1  UNL1        0.0792
     19 C          67.6545   92.5413   16.1823 C.2     1  UNL1        0.0010
     20 C          66.1562   92.5217   16.2521 C.2     1  UNL1        0.0950
     21 N          65.3477   92.4352   14.9914 N.2     1  UNL1       -0.2354
     22 C          66.0375   92.3682   13.6612 C.2     1  UNL1        0.1833
@<TRIPOS>BOND
     1     1     2    2
     2     2     3    1
     3     3     4    2
     4     4     5    1
     5     5     6    2
     6     6     7    1
     7     7     8    1
     8     8    12    1
     9    12    14    1
    10    14    15    2
    11    15    16    1
    12    16    17    2
    13    17    18    1
    14    18    19    1
    15    19    20    2
    16    20    21    1
    17    21    22    2
    18     8     9    2
    19     9    10    1
    20    10    11    2
    21    11     2    1
    22    11     6    1
    23    22    14    1
    24    22    17    1
    25    12    13    1
@<TRIPOS>MOLECULE
*****
 22 25 0 0 0
SMALL
GASTEIGER

@<TRIPOS>ATOM
      1 O          67.1974   93.6492   11.2277 O.2     1  UNL1       -0.2680
      2 C          66.7420   92.9214   12.4577 C.2     1  UNL1        0.2687
      3 N          67.5561   92.9919   13.7155 N.am    1  UNL1       -0.1741
      4 C          67.1006   92.2641   14.9455 C.2     1  UNL1        0.0886
      5 C          65.8311   91.4658   14.9177 C.2     1  UNL1        0.0143
      6 C          65.0169   91.3953   13.6598 C.2     1  UNL1       -0.0085
      7 C          63.7473   90.5969   13.6319 C.3     1  UNL1        0.0936
      8 C          62.9332   90.5264   12.3741 C.2     1  UNL1        0.1171
      9 C          63.3886   91.2542   11.1441 C.2     1  UNL1        0.0360
     10 C          64.6582   92.0525   11.1720 C.2     1  UNL1        0.0074
     11 C          65.4724   92.1231   12.4298 C.2     1  UNL1        0.0520
     12 N          61.6635   89.7281   12.3462 N.pl3   1  UNL1       -0.1990
     13 H          61.1915   89.5245   13.1858 H       1  UNL1        0.2983
     14 C          61.1131   89.2398   11.0391 C.2     1  UNL1        0.3705
     15 N          60.1485   89.9770   10.1581 N.2     1  UNL1        0.0819
     16 N          59.8699   89.1215    8.9579 N.2     1  UNL1       -0.0365
     17 C          60.6624   87.8555    9.0972 C.2     1  UNL1        0.1346
     18 C          60.7837   86.6456    8.2189 C.3     1  UNL1        0.0792
     19 C          61.6732   85.5088    8.6267 C.2     1  UNL1        0.0010
     20 C          62.4416   85.5819    9.9130 C.2     1  UNL1        0.0950
     21 N          62.3203   86.7919   10.7913 N.2     1  UNL1       -0.2354
     22 C          61.4308   87.9287   10.3833 C.2     1  UNL1        0.1833
@<TRIPOS>BOND
     1     1     2    2
     2     2     3    1
     3     3     4    2
     4     4     5    1
     5     5     6    2
     6     6     7    1
     7     7     8    1
     8     8    12    1
     9    12    14    1
    10    14    15    2
    11    15    16    1
    12    16    17    2
    13    17    18    1
    14    18    19    1
    15    19    20    2
    16    20    21    1
    17    21    22    2
    18     8     9    2
    19     9    10    1
    20    10    11    2
    21    11     2    1
    22    11     6    1
    23    22    14    1
    24    22    17    1
    25    12    13    1
@<TRIPOS>MOLECULE
*****
 22 25 0 0 0
SMALL
GASTEIGER

@<TRIPOS>ATOM
      1 O          58.6425   88.0100    7.4842 O.2     1  UNL1       -0.2680
      2 C          59.8952   87.4524    8.0923 C.2     1  UNL1        0.2687
      3 N          60.4771   86.1724    7.5699 N.am    1  UNL1       -0.1741
      4 C          61.7298   85.6149    8.1780 C.2     1  UNL1        0.0886
      5 C          62.4007   86.3373    9.3085 C.2     1  UNL1        0.0143
      6 C          61.8188   87.6173    9.8309 C.2     1  UNL1       -0.0085
      7 C          62.4896   88.3399   10.9614 C.3     1  UNL1        0.0936
      8 C          61.9077   89.6199   11.4838 C.2     1  UNL1        0.1171
      9 C          60.6550   90.1774   10.8756 C.2     1  UNL1        0.0360
     10 C          59.9841   89.4550    9.7452 C.2     1  UNL1        0.0074
     11 C          60.5660   88.1749    9.2228 C.2     1  UNL1        0.0520
     12 N          62.5785   90.3424   12.6143 N.pl3   1  UNL1       -0.1990
     13 H          62.2400   90.2409   13.5332 H       1  UNL1        0.2983
     14 C          63.7651   91.2195   12.3448 C.2     1  UNL1        0.3705
     15 N          64.2269   91.6884   10.9969 N.2     1  UNL1        0.0819
     16 N          65.4454   92.5404   11.1949 N.2     1  UNL1       -0.0365
     17 C          65.7367   92.5981   12.6652 C.2     1  UNL1        0.1346
     18 C          66.8135   93.2884   13.4488 C.3     1  UNL1        0.0792
     19 C          66.8518   93.1625   14.9430 C.2     1  UNL1        0.0010
     20 C          65.8133   92.3461   15.6537 C.2     1  UNL1        0.0950
     21 N          64.7365   91.6557   14.8701 N.2     1  UNL1       -0.2354
     22 C          64.6982   91.7817   13.3759 C.2     1  UNL1        0.1833
@<TRIPOS>BOND
     1     1     2    2
     2     2     3    1
     3     3     4    2
     4     4     5    1
     5     5     6    2
     6     6     7    1
     7     7     8    1
     8     8    12    1
     9    12    14    1
    10    14    15    2
    11    15    16    1
    12    16    17    2
    13    17    18    1
    14    18    19    1
    15    19    20    2
    16    20    21    1
    17    21    22    2
    18     8     9    2
    19     9    10    1
    20    10    11    2
    21    11     2    1
    22    11     6    1
    23    22    14    1
    24    22    17    1
    25    12    13    1
@<TRIPOS>MOLECULE
*****
 22 25 0 0 0
SMALL
GASTEIGER

@<TRIPOS>ATOM
      1 O          64.9765   93.2150   10.7925 O.2     1  UNL1       -0.2680
      2 C          65.5043   92.8877   12.1579 C.2     1  UNL1        0.2687
      3 N          66.4969   93.7991   12.8167 N.am    1  UNL1       -0.1741
      4 C          67.0247   93.4717   14.1821 C.2     1  UNL1        0.0886
      5 C          66.5598   92.2330   14.8887 C.2     1  UNL1        0.0143
      6 C          65.5672   91.3216   14.2300 C.2     1  UNL1       -0.0085
      7 C          65.1023   90.0828   14.9366 C.3     1  UNL1        0.0936
      8 C          64.1097   89.1714   14.2779 C.2     1  UNL1        0.1171
      9 C          63.5819   89.4987   12.9125 C.2     1  UNL1        0.0360
     10 C          64.0467   90.7375   12.2058 C.2     1  UNL1        0.0074
     11 C          65.0394   91.6489   12.8646 C.2     1  UNL1        0.0520
     12 N          63.6447   87.9326   14.9845 N.pl3   1  UNL1       -0.1990
     13 H          63.0200   88.0031   15.7421 H       1  UNL1        0.2983
     14 C          64.1318   86.5863   14.5369 C.2     1  UNL1        0.3705
     15 N          65.2398   85.7954   15.1668 N.2     1  UNL1        0.0819
     16 N          65.3891   84.5149   14.4000 N.2     1  UNL1       -0.0365
     17 C          64.3733   84.5144   13.2962 C.2     1  UNL1        0.1346
     18 C          64.0555   83.5137   12.2250 C.3     1  UNL1        0.0792
     19 C          62.9608   83.7930   11.2385 C.2     1  UNL1        0.0010
     20 C          62.1836   85.0733   11.3231 C.2     1  UNL1        0.0950
     21 N          62.5014   86.0741   12.3944 N.2     1  UNL1       -0.2354
     22 C          63.5963   85.7946   13.3809 C.2     1  UNL1        0.1833
@<TRIPOS>BOND
     1     1     2    2
     2     2     3    1
     3     3     4    2
     4     4     5    1
     5     5     6    2
     6     6     7    1
     7     7     8    1
     8     8    12    1
     9    12    14    1
    10    14    15    2
    11    15    16    1
    12    16    17    2
    13    17    18    1
    14    18    19    1
    15    19    20    2
    16    20    21    1
    17    21    22    2
    18     8     9    2
    19     9    10    1
    20    10    11    2
    21    11     2    1
    22    11     6    1
    23    22    14    1
    24    22    17    1
    25    12    13    1
@<TRIPOS>MOLECULE
*****
 22 25 0 0 0
SMALL
GASTEIGER

@<TRIPOS>ATOM
      1 O          64.5166   81.8936   10.0476 O.2     1  UNL1       -0.2680
      2 C          64.0184   82.5344   11.3091 C.2     1  UNL1        0.2687
      3 N          64.2207   81.8502   12.6284 N.am    1  UNL1       -0.1741
      4 C          63.7225   82.4910   13.8898 C.2     1  UNL1        0.0886
      5 C          63.0221   83.8161   13.8319 C.2     1  UNL1        0.0143
      6 C          62.8198   84.5004   12.5125 C.2     1  UNL1       -0.0085
      7 C          62.1194   85.8256   12.4545 C.3     1  UNL1        0.0936
      8 C          61.9171   86.5099   11.1351 C.2     1  UNL1        0.1171
      9 C          62.4153   85.8690    9.8737 C.2     1  UNL1        0.0360
     10 C          63.1157   84.5439    9.9316 C.2     1  UNL1        0.0074
     11 C          63.3180   83.8596   11.2511 C.2     1  UNL1        0.0520
     12 N          61.2167   87.8351   11.0771 N.pl3   1  UNL1       -0.1990
     13 H          60.2332   87.8713   11.0508 H       1  UNL1        0.2983
     14 C          62.0147   89.1050   11.0590 C.2     1  UNL1        0.3705
     15 N          62.0017   90.1391    9.9725 N.2     1  UNL1        0.0819
     16 N          62.9448   91.2371   10.3662 N.2     1  UNL1       -0.0365
     17 C          63.5406   90.8816   11.6962 C.2     1  UNL1        0.1346
     18 C          64.5323   91.5875   12.5727 C.3     1  UNL1        0.0792
     19 C          64.9491   90.9758   13.8772 C.2     1  UNL1        0.0010
     20 C          64.3743   89.6581   14.3054 C.2     1  UNL1        0.0950
     21 N          63.3825   88.9521   13.4289 N.2     1  UNL1       -0.2354
     22 C          62.9657   89.5639   12.1243 C.2     1  UNL1        0.1833
@<TRIPOS>BOND
     1     1     2    2
     2     2     3    1
     3     3     4    2
     4     4     5    1
     5     5     6    2
     6     6     7    1
     7     7     8    1
     8     8    12    1
     9    12    14    1
    10    14    15    2
    11    15    16    1
    12    16    17    2
    13    17    18    1
    14    18    19    1
    15    19    20    2
    16    20    21    1
    17    21    22    2
    18     8     9    2
    19     9    10    1
    20    10    11    2
    21    11     2    1
    22    11     6    1
    23    22    14    1
    24    22    17    1
    25    12    13    1
