@<TRIPOS>MOLECULE
*****
 25 28 0 0 0
SMALL
GASTEIGER

@<TRIPOS>ATOM
      1 N          63.8573   84.8457   13.7683 N.ar    1  UNL1       -0.2077
      2 C          64.6952   85.2416   14.9477 C.ar    1  UNL1        0.0999
      3 C          64.8034   86.7377   14.9581 C.ar    1  UNL1        0.0220
      4 C          64.0324   87.2664   13.7851 C.ar    1  UNL1        0.0187
      5 C          63.7873   88.6615   13.2916 C.ar    1  UNL1       -0.0030
      6 C          62.9573   88.8873   12.0626 C.ar    1  UNL1       -0.0246
      7 C          62.3727   87.7181   11.3273 C.ar    1  UNL1       -0.0232
      8 C          62.6177   86.3229   11.8207 C.ar    1  UNL1        0.0144
      9 C          63.4477   86.0971   13.0497 C.ar    1  UNL1        0.0822
     10 C          61.5227   87.7206   10.0912 C.3     1  UNL1        0.0431
     11 C          61.0477   88.8933    9.2853 C.3     1  UNL1        0.0733
     12 N          61.3053   90.3527    9.5164 N.3     1  UNL1       -0.2969
     13 C          62.1015   91.0002   10.6105 C.3     1  UNL1        0.0733
     14 C          62.8367   90.3481   11.7436 C.3     1  UNL1        0.0431
     15 H          60.3765   90.7664    9.5972 H       1  UNL1        0.1233
     16 O          64.5541   83.4651   12.3163 O.2     1  UNL1       -0.1476
     17 S          63.4929   83.4445   13.3761 S.O2    1  UNL1        0.0860
     18 O          62.4317   83.4239   14.4361 O.2     1  UNL1       -0.1476
     19 C          63.1285   82.0433   12.9841 C.ar    1  UNL1        0.1285
     20 C          62.6819   81.0642   14.0291 C.ar    1  UNL1        0.0204
     21 C          62.3175   79.6630   13.6370 C.ar    1  UNL1        0.0023
     22 C          62.3995   79.2407   12.2000 C.ar    1  UNL1        0.0115
     23 C          62.8461   80.2199   11.1550 C.ar    1  UNL1        0.0590
     24 CL         62.9282   79.7976    9.7180 Cl      1  UNL1       -0.0822
     25 C          63.2106   81.6211   11.5471 C.ar    1  UNL1        0.0318
@<TRIPOS>BOND
     1    16    17    2
     2    17    18    2
     3    17    19    1
     4    19    20   ar
     5    20    21   ar
     6    21    22   ar
     7    22    23   ar
     8    23    24    1
     9    23    25   ar
    10    17     1    1
    11     1     2   ar
    12     2     3   ar
    13     3     4   ar
    14     4     5   ar
    15     5     6   ar
    16     6     7   ar
    17     7     8   ar
    18     8     9   ar
    19     7    10    1
    20    10    11    1
    21    11    12    1
    22    12    13    1
    23    13    14    1
    24    25    19   ar
    25     9     1   ar
    26     9     4   ar
    27    14     6    1
    28    12    15    1
@<TRIPOS>MOLECULE
*****
 25 28 0 0 0
SMALL
GASTEIGER

@<TRIPOS>ATOM
      1 N          63.1898   89.0717   12.4011 N.ar    1  UNL1       -0.2077
      2 C          62.4351   89.5065   11.1799 C.ar    1  UNL1        0.0999
      3 C          61.9318   88.2768   10.4838 C.ar    1  UNL1        0.0220
      4 C          62.3756   87.0820   11.2747 C.ar    1  UNL1        0.0187
      5 C          62.1721   85.6102   11.0690 C.ar    1  UNL1       -0.0030
      6 C          62.7461   84.6296   12.0483 C.ar    1  UNL1       -0.0246
      7 C          63.5236   85.1208   13.2332 C.ar    1  UNL1       -0.0232
      8 C          63.7271   86.5926   13.4390 C.ar    1  UNL1        0.0144
      9 C          63.1531   87.5733   12.4597 C.ar    1  UNL1        0.0822
     10 C          64.1757   84.3201   14.3212 C.3     1  UNL1        0.0431
     11 C          64.2112   82.8303   14.4929 C.3     1  UNL1        0.0733
     12 N          63.6036   81.7735   13.6191 N.3     1  UNL1       -0.2969
     13 C          62.8102   81.9452   12.3577 C.3     1  UNL1        0.0733
     14 C          62.4286   83.2163   11.6586 C.3     1  UNL1        0.0431
     15 H          62.9853   81.2523   14.2408 H       1  UNL1        0.1233
     16 O          64.3531   90.8404   12.2662 O.2     1  UNL1       -0.1476
     17 S          63.8632   89.9764   13.3901 S.O2    1  UNL1        0.0860
     18 O          63.3732   89.1122   14.5141 O.2     1  UNL1       -0.1476
     19 C          64.5365   90.8810   14.3792 C.ar    1  UNL1        0.1285
     20 C          63.9250   91.1016   15.7311 C.ar    1  UNL1        0.0204
     21 C          64.5983   92.0062   16.7201 C.ar    1  UNL1        0.0023
     22 C          65.8830   92.6902   16.3575 C.ar    1  UNL1        0.0115
     23 C          66.4945   92.4696   15.0056 C.ar    1  UNL1        0.0590
     24 CL         67.7793   93.1536   14.6430 Cl      1  UNL1       -0.0822
     25 C          65.8212   91.5650   14.0166 C.ar    1  UNL1        0.0318
@<TRIPOS>BOND
     1    16    17    2
     2    17    18    2
     3    17    19    1
     4    19    20   ar
     5    20    21   ar
     6    21    22   ar
     7    22    23   ar
     8    23    24    1
     9    23    25   ar
    10    17     1    1
    11     1     2   ar
    12     2     3   ar
    13     3     4   ar
    14     4     5   ar
    15     5     6   ar
    16     6     7   ar
    17     7     8   ar
    18     8     9   ar
    19     7    10    1
    20    10    11    1
    21    11    12    1
    22    12    13    1
    23    13    14    1
    24    25    19   ar
    25     9     1   ar
    26     9     4   ar
    27    14     6    1
    28    12    15    1
@<TRIPOS>MOLECULE
*****
 25 28 0 0 0
SMALL
GASTEIGER

@<TRIPOS>ATOM
      1 N          62.8838   85.6774   12.4467 N.ar    1  UNL1       -0.2077
      2 C          63.6970   86.6290   13.2732 C.ar    1  UNL1        0.0999
      3 C          63.4833   88.0118   12.7327 C.ar    1  UNL1        0.0220
      4 C          62.5381   87.9148   11.5721 C.ar    1  UNL1        0.0187
      5 C          61.9668   88.9539   10.6534 C.ar    1  UNL1       -0.0030
      6 C          61.0250   88.5502    9.5579 C.ar    1  UNL1       -0.0246
      7 C          60.6545   87.1075    9.3811 C.ar    1  UNL1       -0.0232
      8 C          61.2257   86.0684   10.2998 C.ar    1  UNL1        0.0144
      9 C          62.1675   86.4721   11.3953 C.ar    1  UNL1        0.0822
     10 C          59.7405   86.4948    8.3617 C.3     1  UNL1        0.0431
     11 C          58.9713   87.1735    7.2672 C.3     1  UNL1        0.0733
     12 N          58.9261   88.6324    6.9220 N.3     1  UNL1       -0.2969
     13 C          59.6390   89.7732    7.5858 C.3     1  UNL1        0.0733
     14 C          60.5731   89.7366    8.7589 C.3     1  UNL1        0.0431
     15 H          57.9382   88.8788    6.9823 H       1  UNL1        0.1233
     16 O          62.0816   84.3991   13.9374 O.2     1  UNL1       -0.1476
     17 S          62.8013   84.1919   12.6379 S.O2    1  UNL1        0.0860
     18 O          63.5211   83.9848   11.3382 O.2     1  UNL1       -0.1476
     19 C          62.7189   82.7065   12.8289 C.ar    1  UNL1        0.1285
     20 C          62.4998   82.1376   14.1995 C.ar    1  UNL1        0.0204
     21 C          62.4174   80.6521   14.3906 C.ar    1  UNL1        0.0023
     22 C          62.5540   79.7354   13.2112 C.ar    1  UNL1        0.0115
     23 C          62.7731   80.3043   11.8406 C.ar    1  UNL1        0.0590
     24 CL         62.9097   79.3876   10.6612 Cl      1  UNL1       -0.0822
     25 C          62.8555   81.7897   11.6495 C.ar    1  UNL1        0.0318
@<TRIPOS>BOND
     1    16    17    2
     2    17    18    2
     3    17    19    1
     4    19    20   ar
     5    20    21   ar
     6    21    22   ar
     7    22    23   ar
     8    23    24    1
     9    23    25   ar
    10    17     1    1
    11     1     2   ar
    12     2     3   ar
    13     3     4   ar
    14     4     5   ar
    15     5     6   ar
    16     6     7   ar
    17     7     8   ar
    18     8     9   ar
    19     7    10    1
    20    10    11    1
    21    11    12    1
    22    12    13    1
    23    13    14    1
    24    25    19   ar
    25     9     1   ar
    26     9     4   ar
    27    14     6    1
    28    12    15    1
@<TRIPOS>MOLECULE
*****
 25 28 0 0 0
SMALL
GASTEIGER

@<TRIPOS>ATOM
      1 N          63.5063   87.7847   15.7051 N.ar    1  UNL1       -0.2077
      2 C          63.0971   87.7417   17.1476 C.ar    1  UNL1        0.0999
      3 C          62.6789   86.3375   17.4690 C.ar    1  UNL1        0.0220
      4 C          62.8297   85.5127   16.2253 C.ar    1  UNL1        0.0187
      5 C          62.5674   84.0627   15.9446 C.ar    1  UNL1       -0.0030
      6 C          62.8166   83.5072   14.5736 C.ar    1  UNL1       -0.0246
      7 C          63.3279   84.4016   13.4836 C.ar    1  UNL1       -0.0232
      8 C          63.5902   85.8515   13.7642 C.ar    1  UNL1        0.0144
      9 C          63.3411   86.4071   15.1351 C.ar    1  UNL1        0.0822
     10 C          63.6409   84.0540   12.0583 C.3     1  UNL1        0.0431
     11 C          63.5197   82.7260   11.3712 C.3     1  UNL1        0.0733
     12 N          63.0556   81.4179   11.9397 N.3     1  UNL1       -0.2969
     13 C          62.5981   81.1144   13.3357 C.3     1  UNL1        0.0733
     14 C          62.4917   82.0442   14.5079 C.3     1  UNL1        0.0431
     15 H          63.8356   80.7798   11.7820 H       1  UNL1        0.1233
     16 O          65.2713   88.2761   14.6358 O.2     1  UNL1       -0.1476
     17 S          63.9951   88.9932   14.9629 S.O2    1  UNL1        0.0860
     18 O          62.7188   89.7102   15.2901 O.2     1  UNL1       -0.1476
     19 C          64.4837   90.2016   14.2208 C.ar    1  UNL1        0.1285
     20 C          63.9830   90.4841   12.8353 C.ar    1  UNL1        0.0204
     21 C          64.4716   91.6925   12.0931 C.ar    1  UNL1        0.0023
     22 C          65.4609   92.6186   12.7363 C.ar    1  UNL1        0.0115
     23 C          65.9616   92.3360   14.1218 C.ar    1  UNL1        0.0590
     24 CL         66.9510   93.2621   14.7650 Cl      1  UNL1       -0.0822
     25 C          65.4730   91.1276   14.8640 C.ar    1  UNL1        0.0318
@<TRIPOS>BOND
     1    16    17    2
     2    17    18    2
     3    17    19    1
     4    19    20   ar
     5    20    21   ar
     6    21    22   ar
     7    22    23   ar
     8    23    24    1
     9    23    25   ar
    10    17     1    1
    11     1     2   ar
    12     2     3   ar
    13     3     4   ar
    14     4     5   ar
    15     5     6   ar
    16     6     7   ar
    17     7     8   ar
    18     8     9   ar
    19     7    10    1
    20    10    11    1
    21    11    12    1
    22    12    13    1
    23    13    14    1
    24    25    19   ar
    25     9     1   ar
    26     9     4   ar
    27    14     6    1
    28    12    15    1
@<TRIPOS>MOLECULE
*****
 25 28 0 0 0
SMALL
GASTEIGER

@<TRIPOS>ATOM
      1 N          63.5181   87.4157   13.2239 N.ar    1  UNL1       -0.2077
      2 C          63.8888   86.0094   13.5913 C.ar    1  UNL1        0.0999
      3 C          63.2522   85.0868   12.5945 C.ar    1  UNL1        0.0220
      4 C          62.4881   85.9228   11.6111 C.ar    1  UNL1        0.0187
      5 C          61.6639   85.5594   10.4117 C.ar    1  UNL1       -0.0030
      6 C          61.0040   86.6354    9.6011 C.ar    1  UNL1       -0.0246
      7 C          61.1684   88.0746    9.9901 C.ar    1  UNL1       -0.0232
      8 C          61.9925   88.4381   11.1895 C.ar    1  UNL1        0.0144
      9 C          62.6524   87.3622   12.0000 C.ar    1  UNL1        0.0822
     10 C          60.6009   89.2938    9.3253 C.3     1  UNL1        0.0431
     11 C          59.7290   89.3745    8.1073 C.3     1  UNL1        0.0733
     12 N          59.2092   88.2562    7.2535 N.3     1  UNL1       -0.2969
     13 C          59.4329   86.7809    7.4066 C.3     1  UNL1        0.0733
     14 C          60.2317   86.0595    8.4514 C.3     1  UNL1        0.0431
     15 H          59.5503   88.4705    6.3164 H       1  UNL1        0.1233
     16 O          63.9363   89.4172   12.6590 O.2     1  UNL1       -0.1476
     17 S          63.9391   88.6575   13.9523 S.O2    1  UNL1        0.0860
     18 O          63.9418   87.8978   15.2457 O.2     1  UNL1       -0.1476
     19 C          64.3601   89.8993   14.6809 C.ar    1  UNL1        0.1285
     20 C          63.6406   90.3168   15.9291 C.ar    1  UNL1        0.0204
     21 C          64.0616   91.5586   16.6576 C.ar    1  UNL1        0.0023
     22 C          65.2020   92.3828   16.1380 C.ar    1  UNL1        0.0115
     23 C          65.9215   91.9652   14.8898 C.ar    1  UNL1        0.0590
     24 CL         67.0619   92.7895   14.3702 Cl      1  UNL1       -0.0822
     25 C          65.5005   90.7235   14.1613 C.ar    1  UNL1        0.0318
@<TRIPOS>BOND
     1    16    17    2
     2    17    18    2
     3    17    19    1
     4    19    20   ar
     5    20    21   ar
     6    21    22   ar
     7    22    23   ar
     8    23    24    1
     9    23    25   ar
    10    17     1    1
    11     1     2   ar
    12     2     3   ar
    13     3     4   ar
    14     4     5   ar
    15     5     6   ar
    16     6     7   ar
    17     7     8   ar
    18     8     9   ar
    19     7    10    1
    20    10    11    1
    21    11    12    1
    22    12    13    1
    23    13    14    1
    24    25    19   ar
    25     9     1   ar
    26     9     4   ar
    27    14     6    1
    28    12    15    1
@<TRIPOS>MOLECULE
*****
 25 28 0 0 0
SMALL
GASTEIGER

@<TRIPOS>ATOM
      1 N          63.1142   88.1342   12.4175 N.ar    1  UNL1       -0.2077
      2 C          63.3146   87.3893   13.7039 C.ar    1  UNL1        0.0999
      3 C          64.1426   88.2485   14.6129 C.ar    1  UNL1        0.0220
      4 C          64.4538   89.5244   13.8883 C.ar    1  UNL1        0.0187
      5 C          65.2338   90.7415   14.2887 C.ar    1  UNL1       -0.0030
      6 C          65.3782   91.8880   13.3322 C.ar    1  UNL1       -0.0246
      7 C          64.7427   91.8173   11.9755 C.ar    1  UNL1       -0.0232
      8 C          63.9627   90.6003   11.5750 C.ar    1  UNL1        0.0144
      9 C          63.8182   89.4538   12.5314 C.ar    1  UNL1        0.0822
     10 C          64.7637   92.8401   10.8784 C.3     1  UNL1        0.0431
     11 C          65.4255   94.1863   10.8674 C.3     1  UNL1        0.0733
     12 N          66.2297   94.8419   11.9505 N.3     1  UNL1       -0.2969
     13 C          66.5708   94.3135   13.3123 C.3     1  UNL1        0.0733
     14 C          66.1918   92.9988   13.9272 C.3     1  UNL1        0.0431
     15 H          65.7455   95.7212   12.1315 H       1  UNL1        0.1233
     16 O          62.7702   86.2392   11.5284 O.2     1  UNL1       -0.1476
     17 S          62.3448   87.6454   11.2262 S.O2    1  UNL1        0.0860
     18 O          61.9193   89.0517   10.9241 O.2     1  UNL1       -0.1476
     19 C          61.5754   87.1567   10.0350 C.ar    1  UNL1        0.1285
     20 C          60.1545   87.5917    9.8298 C.ar    1  UNL1        0.0204
     21 C          59.3851   87.1031    8.6386 C.ar    1  UNL1        0.0023
     22 C          60.0364   86.1794    7.6524 C.ar    1  UNL1        0.0115
     23 C          61.4573   85.7444    7.8575 C.ar    1  UNL1        0.0590
     24 CL         62.1085   84.8207    6.8713 Cl      1  UNL1       -0.0822
     25 C          62.2266   86.2330    9.0488 C.ar    1  UNL1        0.0318
@<TRIPOS>BOND
     1    16    17    2
     2    17    18    2
     3    17    19    1
     4    19    20   ar
     5    20    21   ar
     6    21    22   ar
     7    22    23   ar
     8    23    24    1
     9    23    25   ar
    10    17     1    1
    11     1     2   ar
    12     2     3   ar
    13     3     4   ar
    14     4     5   ar
    15     5     6   ar
    16     6     7   ar
    17     7     8   ar
    18     8     9   ar
    19     7    10    1
    20    10    11    1
    21    11    12    1
    22    12    13    1
    23    13    14    1
    24    25    19   ar
    25     9     1   ar
    26     9     4   ar
    27    14     6    1
    28    12    15    1
@<TRIPOS>MOLECULE
*****
 25 28 0 0 0
SMALL
GASTEIGER

@<TRIPOS>ATOM
      1 N          62.2581   85.9470   11.0015 N.ar    1  UNL1       -0.2077
      2 C          61.5844   86.1640    9.6790 C.ar    1  UNL1        0.0999
      3 C          61.6617   87.6264    9.3540 C.ar    1  UNL1        0.0220
      4 C          62.3831   88.3130   10.4756 C.ar    1  UNL1        0.0187
      5 C          62.7519   89.7494   10.7013 C.ar    1  UNL1       -0.0030
      6 C          63.4895   90.1477   11.9453 C.ar    1  UNL1       -0.0246
      7 C          63.8581   89.1098   12.9634 C.ar    1  UNL1       -0.0232
      8 C          63.4893   87.6735   12.7378 C.ar    1  UNL1        0.0144
      9 C          62.7517   87.2751   11.4939 C.ar    1  UNL1        0.0822
     10 C          64.5874   89.2908   14.2617 C.3     1  UNL1        0.0431
     11 C          65.1281   90.5546   14.8623 C.3     1  UNL1        0.0733
     12 N          65.0731   91.9492   14.3131 N.3     1  UNL1       -0.2969
     13 C          64.4638   92.4248   13.0275 C.3     1  UNL1        0.0733
     14 C          63.7590   91.6231   11.9737 C.3     1  UNL1        0.0431
     15 H          66.0491   92.2401   14.2562 H       1  UNL1        0.1233
     16 O          61.7658   85.2141   12.9304 O.2     1  UNL1       -0.1476
     17 S          62.4114   84.6325   11.7078 S.O2    1  UNL1        0.0860
     18 O          63.0570   84.0509   10.4851 O.2     1  UNL1       -0.1476
     19 C          62.5647   83.3181   12.4139 C.ar    1  UNL1        0.1285
     20 C          62.6811   83.2789   13.9089 C.ar    1  UNL1        0.0204
     21 C          62.8344   81.9645   14.6151 C.ar    1  UNL1        0.0023
     22 C          62.8713   80.6891   13.8264 C.ar    1  UNL1        0.0115
     23 C          62.7549   80.7283   12.3314 C.ar    1  UNL1        0.0590
     24 CL         62.7918   79.4529   11.5427 Cl      1  UNL1       -0.0822
     25 C          62.6016   82.0427   11.6252 C.ar    1  UNL1        0.0318
@<TRIPOS>BOND
     1    16    17    2
     2    17    18    2
     3    17    19    1
     4    19    20   ar
     5    20    21   ar
     6    21    22   ar
     7    22    23   ar
     8    23    24    1
     9    23    25   ar
    10    17     1    1
    11     1     2   ar
    12     2     3   ar
    13     3     4   ar
    14     4     5   ar
    15     5     6   ar
    16     6     7   ar
    17     7     8   ar
    18     8     9   ar
    19     7    10    1
    20    10    11    1
    21    11    12    1
    22    12    13    1
    23    13    14    1
    24    25    19   ar
    25     9     1   ar
    26     9     4   ar
    27    14     6    1
    28    12    15    1
@<TRIPOS>MOLECULE
*****
 25 28 0 0 0
SMALL
GASTEIGER

@<TRIPOS>ATOM
      1 N          62.4416   87.1834   11.3403 N.ar    1  UNL1       -0.2077
      2 C          61.7433   87.4681   10.0436 C.ar    1  UNL1        0.0999
      3 C          61.9871   88.9058    9.6919 C.ar    1  UNL1        0.0220
      4 C          62.8359   89.5096   10.7711 C.ar    1  UNL1        0.0187
      5 C          63.3894   90.8912   10.9578 C.ar    1  UNL1       -0.0030
      6 C          64.2238   91.2083   12.1633 C.ar    1  UNL1       -0.0246
      7 C          64.5047   90.1439   13.1820 C.ar    1  UNL1       -0.0232
      8 C          63.9513   88.7623   12.9954 C.ar    1  UNL1        0.0144
      9 C          63.1169   88.4451   11.7899 C.ar    1  UNL1        0.0822
     10 C          65.3064   90.2469   14.4457 C.3     1  UNL1        0.0431
     11 C          66.0251   91.4401   15.0026 C.3     1  UNL1        0.0733
     12 N          66.1196   92.8245   14.4334 N.3     1  UNL1       -0.2969
     13 C          65.5188   93.3581   13.1668 C.3     1  UNL1        0.0733
     14 C          64.6751   92.6388   12.1565 C.3     1  UNL1        0.0431
     15 H          67.1207   92.9910   14.3313 H       1  UNL1        0.1233
     16 O          63.3590   86.4555   13.1091 O.2     1  UNL1       -0.1476
     17 S          62.4613   85.8679   12.0609 S.O2    1  UNL1        0.0860
     18 O          61.5635   85.2804   11.0126 O.2     1  UNL1       -0.1476
     19 C          62.4808   84.5525   12.7814 C.ar    1  UNL1        0.1285
     20 C          62.4006   84.5163   14.2789 C.ar    1  UNL1        0.0204
     21 C          62.4202   83.2009   14.9994 C.ar    1  UNL1        0.0023
     22 C          62.5200   81.9216   14.2226 C.ar    1  UNL1        0.0115
     23 C          62.6002   81.9578   12.7251 C.ar    1  UNL1        0.0590
     24 CL         62.7000   80.6785   11.9484 Cl      1  UNL1       -0.0822
     25 C          62.5806   83.2732   12.0046 C.ar    1  UNL1        0.0318
@<TRIPOS>BOND
     1    16    17    2
     2    17    18    2
     3    17    19    1
     4    19    20   ar
     5    20    21   ar
     6    21    22   ar
     7    22    23   ar
     8    23    24    1
     9    23    25   ar
    10    17     1    1
    11     1     2   ar
    12     2     3   ar
    13     3     4   ar
    14     4     5   ar
    15     5     6   ar
    16     6     7   ar
    17     7     8   ar
    18     8     9   ar
    19     7    10    1
    20    10    11    1
    21    11    12    1
    22    12    13    1
    23    13    14    1
    24    25    19   ar
    25     9     1   ar
    26     9     4   ar
    27    14     6    1
    28    12    15    1
@<TRIPOS>MOLECULE
*****
 25 28 0 0 0
SMALL
GASTEIGER

@<TRIPOS>ATOM
      1 N          63.9837   84.7016   13.2738 N.ar    1  UNL1       -0.2077
      2 C          64.9479   83.5571   13.1726 C.ar    1  UNL1        0.0999
      3 C          64.9185   83.0497   11.7612 C.ar    1  UNL1        0.0220
      4 C          63.9361   83.8807   10.9903 C.ar    1  UNL1        0.0187
      5 C          63.4930   83.8396    9.5578 C.ar    1  UNL1       -0.0030
      6 C          62.4721   84.8196    9.0602 C.ar    1  UNL1       -0.0246
      7 C          61.8945   85.8404    9.9949 C.ar    1  UNL1       -0.0232
      8 C          62.3375   85.8816   11.4274 C.ar    1  UNL1        0.0144
      9 C          63.3584   84.9017   11.9251 C.ar    1  UNL1        0.0822
     10 C          60.8734   86.9008    9.7066 C.3     1  UNL1        0.0431
     11 C          60.1779   87.2020    8.4120 C.3     1  UNL1        0.0733
     12 N          60.3317   86.5174    7.0864 N.3     1  UNL1       -0.2969
     13 C          61.2190   85.3623    6.7276 C.3     1  UNL1        0.0733
     14 C          62.1716   84.6067    7.6061 C.3     1  UNL1        0.0431
     15 H          60.6086   87.2609    6.4454 H       1  UNL1        0.1233
     16 O          62.4016   84.7674   14.6854 O.2     1  UNL1       -0.1476
     17 S          63.6954   85.5052   14.5072 S.O2    1  UNL1        0.0860
     18 O          64.9892   86.2429   14.3289 O.2     1  UNL1       -0.1476
     19 C          63.4071   86.3087   15.7405 C.ar    1  UNL1        0.1285
     20 C          63.0088   85.6168   17.0104 C.ar    1  UNL1        0.0204
     21 C          62.7206   86.4203   18.2438 C.ar    1  UNL1        0.0023
     22 C          62.8306   87.9158   18.2073 C.ar    1  UNL1        0.0115
     23 C          63.2289   88.6078   16.9374 C.ar    1  UNL1        0.0590
     24 CL         63.3389   90.1033   16.9010 Cl      1  UNL1       -0.0822
     25 C          63.5171   87.8042   15.7041 C.ar    1  UNL1        0.0318
@<TRIPOS>BOND
     1    16    17    2
     2    17    18    2
     3    17    19    1
     4    19    20   ar
     5    20    21   ar
     6    21    22   ar
     7    22    23   ar
     8    23    24    1
     9    23    25   ar
    10    17     1    1
    11     1     2   ar
    12     2     3   ar
    13     3     4   ar
    14     4     5   ar
    15     5     6   ar
    16     6     7   ar
    17     7     8   ar
    18     8     9   ar
    19     7    10    1
    20    10    11    1
    21    11    12    1
    22    12    13    1
    23    13    14    1
    24    25    19   ar
    25     9     1   ar
    26     9     4   ar
    27    14     6    1
    28    12    15    1
