@<TRIPOS>MOLECULE
*****
 26 29 0 0 0
SMALL
GASTEIGER

@<TRIPOS>ATOM
      1 N          62.0091   87.3367   11.5768 N.ar    1  UNL1       -0.2954
      2 C          62.7690   86.5384   12.5943 C.ar    1  UNL1        0.2014
      3 N          63.7556   87.4527   13.2581 N.ar    1  UNL1       -0.2136
      4 C          63.6055   88.8160   12.6509 C.ar    1  UNL1        0.0999
      5 C          64.3122   90.1135   12.9100 C.ar    1  UNL1        0.0207
      6 C          63.9396   91.3392   12.1299 C.ar    1  UNL1        0.0016
      7 C          62.8602   91.2676   11.0908 C.ar    1  UNL1        0.0016
      8 C          62.1534   89.9702   10.8317 C.ar    1  UNL1        0.0188
      9 C          62.5261   88.7444   11.6118 C.ar    1  UNL1        0.0801
     10 N          62.5761   85.0816   12.8951 N.pl3   1  UNL1       -0.2794
     11 C          62.6836   84.0679   11.7948 C.3     1  UNL1        0.0949
     12 C          62.4908   82.6111   12.0956 C.3     1  UNL1        0.0375
     13 C          62.1903   82.1679   13.4968 C.3     1  UNL1        0.0610
     14 C          62.0827   83.1816   14.5971 C.3     1  UNL1        0.0375
     15 C          62.2756   84.6384   14.2963 C.3     1  UNL1        0.0949
     16 N          61.9974   80.7111   13.7976 N.3     1  UNL1       -0.2715
     17 C          60.6499   80.2042   14.2184 C.3     1  UNL1        0.0896
     18 C          63.1520   79.7612   13.6776 C.3     1  UNL1        0.0896
     19 C          60.9229   86.8184   10.6815 C.3     1  UNL1        0.1354
     20 C          62.3205   84.2953    5.4203 C.3     1  UNL1        0.0310
     21 C          61.9711   84.9261    6.7356 C.ar    1  UNL1       -0.0219
     22 C          63.0077   85.0342    7.8144 C.ar    1  UNL1       -0.0045
     23 C          62.6583   85.6650    9.1297 C.ar    1  UNL1       -0.0027
     24 C          61.2723   86.1877    9.3662 C.ar    1  UNL1        0.0004
     25 C          60.2357   86.0796    8.2874 C.ar    1  UNL1       -0.0027
     26 C          60.5851   85.4488    6.9721 C.ar    1  UNL1       -0.0045
@<TRIPOS>BOND
     1    20    21    1
     2    21    22   ar
     3    22    23   ar
     4    23    24   ar
     5    24    19    1
     6    19     1    1
     7     1     2   ar
     8     2    10    1
     9    10    11    1
    10    11    12    1
    11    12    13    1
    12    13    16    1
    13    16    17    1
    14    16    18    1
    15    13    14    1
    16    14    15    1
    17     2     3   ar
    18     3     4   ar
    19     4     5   ar
    20     5     6   ar
    21     6     7   ar
    22     7     8   ar
    23     8     9   ar
    24    24    25   ar
    25    25    26   ar
    26    26    21   ar
    27     9     1   ar
    28    15    10    1
    29     9     4   ar
@<TRIPOS>MOLECULE
*****
 26 29 0 0 0
SMALL
GASTEIGER

@<TRIPOS>ATOM
      1 N          61.9705   88.0593   10.8984 N.ar    1  UNL1       -0.2954
      2 C          62.2443   89.5327   10.8351 C.ar    1  UNL1        0.2014
      3 N          61.4677   90.0994    9.6836 N.ar    1  UNL1       -0.2136
      4 C          60.7140   88.9761    9.0353 C.ar    1  UNL1        0.0999
      5 C          59.7850   88.9386    7.8583 C.ar    1  UNL1        0.0207
      6 C          59.1666   87.6401    7.4321 C.ar    1  UNL1        0.0016
      7 C          59.4774   86.3793    8.1828 C.ar    1  UNL1        0.0016
      8 C          60.4065   86.4169    9.3598 C.ar    1  UNL1        0.0188
      9 C          61.0248   87.7153    9.7860 C.ar    1  UNL1        0.0801
     10 N          63.1377   90.3041   11.7607 N.pl3   1  UNL1       -0.2794
     11 C          63.1329   90.0044   13.2304 C.3     1  UNL1        0.0949
     12 C          64.0263   90.7758   14.1561 C.3     1  UNL1        0.0375
     13 C          64.9245   91.8468   13.6120 C.3     1  UNL1        0.0610
     14 C          64.9293   92.1465   12.1423 C.3     1  UNL1        0.0375
     15 C          64.0359   91.3751   11.2166 C.3     1  UNL1        0.0949
     16 N          65.8180   92.6182   14.5376 N.3     1  UNL1       -0.2715
     17 C          66.7640   93.6431   13.9858 C.3     1  UNL1        0.0896
     18 C          65.7654   92.3646   16.0151 C.3     1  UNL1        0.0896
     19 C          62.5421   87.0985   11.8984 C.3     1  UNL1        0.1354
     20 C          63.4143   81.3583   10.3853 C.3     1  UNL1        0.0310
     21 C          63.1963   82.7934   10.7636 C.ar    1  UNL1       -0.0219
     22 C          62.7555   83.1438   12.1539 C.ar    1  UNL1       -0.0045
     23 C          62.5375   84.5789   12.5321 C.ar    1  UNL1       -0.0027
     24 C          62.7602   85.6635   11.5201 C.ar    1  UNL1        0.0004
     25 C          63.2009   85.3130   10.1299 C.ar    1  UNL1       -0.0027
     26 C          63.4190   83.8779    9.7516 C.ar    1  UNL1       -0.0045
@<TRIPOS>BOND
     1    20    21    1
     2    21    22   ar
     3    22    23   ar
     4    23    24   ar
     5    24    19    1
     6    19     1    1
     7     1     2   ar
     8     2    10    1
     9    10    11    1
    10    11    12    1
    11    12    13    1
    12    13    16    1
    13    16    17    1
    14    16    18    1
    15    13    14    1
    16    14    15    1
    17     2     3   ar
    18     3     4   ar
    19     4     5   ar
    20     5     6   ar
    21     6     7   ar
    22     7     8   ar
    23     8     9   ar
    24    24    25   ar
    25    25    26   ar
    26    26    21   ar
    27     9     1   ar
    28    15    10    1
    29     9     4   ar
@<TRIPOS>MOLECULE
*****
 26 29 0 0 0
SMALL
GASTEIGER

@<TRIPOS>ATOM
      1 N          65.6824   91.5603   12.5265 N.ar    1  UNL1       -0.2954
      2 C          64.3628   90.9520   12.8987 C.ar    1  UNL1        0.2014
      3 N          64.1622   91.1460   14.3725 N.ar    1  UNL1       -0.2136
      4 C          65.3578   91.8743   14.9112 C.ar    1  UNL1        0.0999
      5 C          65.7123   92.3373   16.2932 C.ar    1  UNL1        0.0207
      6 C          67.0064   93.0564   16.5342 C.ar    1  UNL1        0.0016
      7 C          67.9460   93.3125   15.3933 C.ar    1  UNL1        0.0016
      8 C          67.5914   92.8494   14.0113 C.ar    1  UNL1        0.0188
      9 C          66.2973   92.1303   13.7703 C.ar    1  UNL1        0.0801
     10 N          63.4109   90.2694   11.9617 N.pl3   1  UNL1       -0.2794
     11 C          62.7438   91.0513   10.8692 C.3     1  UNL1        0.0949
     12 C          61.7919   90.3688    9.9321 C.3     1  UNL1        0.0375
     13 C          61.5071   88.9044   10.0875 C.3     1  UNL1        0.0610
     14 C          62.1742   88.1224   11.1800 C.3     1  UNL1        0.0375
     15 C          63.1261   88.8050   12.1171 C.3     1  UNL1        0.0949
     16 N          60.5553   88.2218    9.1505 N.3     1  UNL1       -0.2715
     17 C          59.7973   89.0246    8.1352 C.3     1  UNL1        0.0896
     18 C          60.3614   86.7365    9.2287 C.3     1  UNL1        0.0896
     19 C          66.2818   91.5929   11.1519 C.3     1  UNL1        0.1354
     20 C          67.4279   96.8530    8.5028 C.3     1  UNL1        0.0310
     21 C          67.1414   95.5379    9.1650 C.ar    1  UNL1       -0.0219
     22 C          65.9909   95.4139   10.1195 C.ar    1  UNL1       -0.0045
     23 C          65.7044   94.0988   10.7817 C.ar    1  UNL1       -0.0027
     24 C          66.5683   92.9079   10.4896 C.ar    1  UNL1        0.0004
     25 C          67.7189   93.0321    9.5352 C.ar    1  UNL1       -0.0027
     26 C          68.0054   94.3471    8.8729 C.ar    1  UNL1       -0.0045
@<TRIPOS>BOND
     1    20    21    1
     2    21    22   ar
     3    22    23   ar
     4    23    24   ar
     5    24    19    1
     6    19     1    1
     7     1     2   ar
     8     2    10    1
     9    10    11    1
    10    11    12    1
    11    12    13    1
    12    13    16    1
    13    16    17    1
    14    16    18    1
    15    13    14    1
    16    14    15    1
    17     2     3   ar
    18     3     4   ar
    19     4     5   ar
    20     5     6   ar
    21     6     7   ar
    22     7     8   ar
    23     8     9   ar
    24    24    25   ar
    25    25    26   ar
    26    26    21   ar
    27     9     1   ar
    28    15    10    1
    29     9     4   ar
@<TRIPOS>MOLECULE
*****
 26 29 0 0 0
SMALL
GASTEIGER

@<TRIPOS>ATOM
      1 N          64.3969   91.0037   14.3109 N.ar    1  UNL1       -0.2954
      2 C          64.4308   91.0052   12.8113 C.ar    1  UNL1        0.2014
      3 N          65.6157   91.8151   12.3753 N.ar    1  UNL1       -0.2136
      4 C          66.3141   92.3141   13.6055 C.ar    1  UNL1        0.0999
      5 C          67.5386   93.1603   13.7908 C.ar    1  UNL1        0.0207
      6 C          68.0099   93.5050   15.1725 C.ar    1  UNL1        0.0016
      7 C          67.2567   93.0035   16.3688 C.ar    1  UNL1        0.0016
      8 C          66.0321   92.1573   16.1834 C.ar    1  UNL1        0.0188
      9 C          65.5609   91.8126   14.8018 C.ar    1  UNL1        0.0801
     10 N          63.4517   90.3176   11.9066 N.pl3   1  UNL1       -0.2794
     11 C          62.7394   91.0973   10.8414 C.3     1  UNL1        0.0949
     12 C          61.7603   90.4097    9.9366 C.3     1  UNL1        0.0375
     13 C          61.4935   88.9424   10.0971 C.3     1  UNL1        0.0610
     14 C          62.2057   88.1627   11.1623 C.3     1  UNL1        0.0375
     15 C          63.1848   88.8503   12.0670 C.3     1  UNL1        0.0949
     16 N          60.5144   88.2548    9.1923 N.3     1  UNL1       -0.2715
     17 C          59.7822   89.0398    8.1446 C.3     1  UNL1        0.0896
     18 C          60.2674   86.7823    9.3352 C.3     1  UNL1        0.0896
     19 C          63.3780   90.3143   15.1691 C.3     1  UNL1        0.1354
     20 C          63.9608   84.4738   16.4136 C.3     1  UNL1        0.0310
     21 C          63.8151   85.9339   16.1024 C.ar    1  UNL1       -0.0219
     22 C          63.0172   86.8189   17.0136 C.ar    1  UNL1       -0.0045
     23 C          62.8715   88.2790   16.7025 C.ar    1  UNL1       -0.0027
     24 C          63.5237   88.8542   15.4802 C.ar    1  UNL1        0.0004
     25 C          64.3216   87.9692   14.5690 C.ar    1  UNL1       -0.0027
     26 C          64.4672   86.5090   14.8802 C.ar    1  UNL1       -0.0045
@<TRIPOS>BOND
     1    20    21    1
     2    21    22   ar
     3    22    23   ar
     4    23    24   ar
     5    24    19    1
     6    19     1    1
     7     1     2   ar
     8     2    10    1
     9    10    11    1
    10    11    12    1
    11    12    13    1
    12    13    16    1
    13    16    17    1
    14    16    18    1
    15    13    14    1
    16    14    15    1
    17     2     3   ar
    18     3     4   ar
    19     4     5   ar
    20     5     6   ar
    21     6     7   ar
    22     7     8   ar
    23     8     9   ar
    24    24    25   ar
    25    25    26   ar
    26    26    21   ar
    27     9     1   ar
    28    15    10    1
    29     9     4   ar
@<TRIPOS>MOLECULE
*****
 26 29 0 0 0
SMALL
GASTEIGER

@<TRIPOS>ATOM
      1 N          62.5962   93.8763   -0.1989 N.ar    1  UNL1       -0.2954
      2 C          62.6154   93.9882    1.2968 C.ar    1  UNL1        0.2014
      3 N          63.6877   94.9667    1.6747 N.ar    1  UNL1       -0.2136
      4 C          64.3312   95.4595    0.4125 C.ar    1  UNL1        0.0999
      5 C          65.4443   96.4348    0.1680 C.ar    1  UNL1        0.0207
      6 C          65.8828   96.7362   -1.2344 C.ar    1  UNL1        0.0016
      7 C          65.2082   96.0623   -2.3923 C.ar    1  UNL1        0.0016
      8 C          64.0951   95.0870   -2.1478 C.ar    1  UNL1        0.0188
      9 C          63.6567   94.7856   -0.7454 C.ar    1  UNL1        0.0801
     10 N          61.7196   93.2511    2.2477 N.pl3   1  UNL1       -0.2794
     11 C          62.2697   92.1324    3.0819 C.3     1  UNL1        0.0949
     12 C          61.3739   91.3953    4.0327 C.3     1  UNL1        0.0375
     13 C          59.9279   91.7769    4.1495 C.3     1  UNL1        0.0610
     14 C          59.3778   92.8955    3.3153 C.3     1  UNL1        0.0375
     15 C          60.2737   93.6327    2.3644 C.3     1  UNL1        0.0949
     16 N          59.0321   91.0397    5.1003 N.3     1  UNL1       -0.2715
     17 C          59.6013   89.9845    6.0017 C.3     1  UNL1        0.0896
     18 C          57.5671   91.3579    5.1499 C.3     1  UNL1        0.0896
     19 C          61.6778   93.0076   -1.0063 C.3     1  UNL1        0.1354
     20 C          55.9012   94.5074   -1.6232 C.3     1  UNL1        0.0310
     21 C          57.3453   94.1325   -1.4689 C.ar    1  UNL1       -0.0219
     22 C          58.4174   95.1373   -1.7707 C.ar    1  UNL1       -0.0045
     23 C          59.8616   94.7623   -1.6165 C.ar    1  UNL1       -0.0027
     24 C          60.2337   93.3825   -1.1605 C.ar    1  UNL1        0.0004
     25 C          59.1616   92.3778   -0.8588 C.ar    1  UNL1       -0.0027
     26 C          57.7175   92.7528   -1.0130 C.ar    1  UNL1       -0.0045
@<TRIPOS>BOND
     1    20    21    1
     2    21    22   ar
     3    22    23   ar
     4    23    24   ar
     5    24    19    1
     6    19     1    1
     7     1     2   ar
     8     2    10    1
     9    10    11    1
    10    11    12    1
    11    12    13    1
    12    13    16    1
    13    16    17    1
    14    16    18    1
    15    13    14    1
    16    14    15    1
    17     2     3   ar
    18     3     4   ar
    19     4     5   ar
    20     5     6   ar
    21     6     7   ar
    22     7     8   ar
    23     8     9   ar
    24    24    25   ar
    25    25    26   ar
    26    26    21   ar
    27     9     1   ar
    28    15    10    1
    29     9     4   ar
@<TRIPOS>MOLECULE
*****
 26 29 0 0 0
SMALL
GASTEIGER

@<TRIPOS>ATOM
      1 N          60.9703   94.3282   -0.4444 N.ar    1  UNL1       -0.2954
      2 C          59.5918   93.9891    0.0403 C.ar    1  UNL1        0.2014
      3 N          59.7284   93.1578    1.2815 N.ar    1  UNL1       -0.2136
      4 C          61.1912   92.9832    1.5638 C.ar    1  UNL1        0.0999
      5 C          61.9235   92.2591    2.6543 C.ar    1  UNL1        0.0207
      6 C          63.4233   92.2582    2.6782 C.ar    1  UNL1        0.0016
      7 C          64.1908   92.9816    1.6116 C.ar    1  UNL1        0.0016
      8 C          63.4585   93.7057    0.5211 C.ar    1  UNL1        0.0188
      9 C          61.9588   93.7066    0.4972 C.ar    1  UNL1        0.0801
     10 N          58.3031   94.4077   -0.6031 N.pl3   1  UNL1       -0.2794
     11 C          57.3223   93.3699   -1.0622 C.3     1  UNL1        0.0949
     12 C          56.0336   93.7885   -1.7056 C.3     1  UNL1        0.0375
     13 C          55.7257   95.2449   -1.8899 C.3     1  UNL1        0.0610
     14 C          56.7066   96.2827   -1.4308 C.3     1  UNL1        0.0375
     15 C          57.9953   95.8641   -0.7874 C.3     1  UNL1        0.0949
     16 N          54.4370   95.6635   -2.5334 N.3     1  UNL1       -0.2715
     17 C          54.3736   95.8753   -4.0169 C.3     1  UNL1        0.0896
     18 C          53.2117   95.8703   -1.6932 C.3     1  UNL1        0.0896
     19 C          61.3020   95.1455   -1.6576 C.3     1  UNL1        0.1354
     20 C          65.4936   93.2399   -5.5045 C.3     1  UNL1        0.0310
     21 C          64.4457   93.7163   -4.5428 C.ar    1  UNL1       -0.0219
     22 C          63.3782   92.7747   -4.0698 C.ar    1  UNL1       -0.0045
     23 C          62.3303   93.2511   -3.1081 C.ar    1  UNL1       -0.0027
     24 C          62.3499   94.6692   -2.6193 C.ar    1  UNL1        0.0004
     25 C          63.4175   95.6107   -3.0923 C.ar    1  UNL1       -0.0027
     26 C          64.4654   95.1343   -4.0540 C.ar    1  UNL1       -0.0045
@<TRIPOS>BOND
     1    20    21    1
     2    21    22   ar
     3    22    23   ar
     4    23    24   ar
     5    24    19    1
     6    19     1    1
     7     1     2   ar
     8     2    10    1
     9    10    11    1
    10    11    12    1
    11    12    13    1
    12    13    16    1
    13    16    17    1
    14    16    18    1
    15    13    14    1
    16    14    15    1
    17     2     3   ar
    18     3     4   ar
    19     4     5   ar
    20     5     6   ar
    21     6     7   ar
    22     7     8   ar
    23     8     9   ar
    24    24    25   ar
    25    25    26   ar
    26    26    21   ar
    27     9     1   ar
    28    15    10    1
    29     9     4   ar
@<TRIPOS>MOLECULE
*****
 26 29 0 0 0
SMALL
GASTEIGER

@<TRIPOS>ATOM
      1 N          62.4755   95.5857   -1.3506 N.ar    1  UNL1       -0.2954
      2 C          61.5951   95.2123   -2.5062 C.ar    1  UNL1        0.2014
      3 N          62.3796   95.4098   -3.7693 N.ar    1  UNL1       -0.2136
      4 C          63.7449   95.9053   -3.3944 C.ar    1  UNL1        0.0999
      5 C          64.9417   96.2715   -4.2211 C.ar    1  UNL1        0.0207
      6 C          66.1978   96.7464   -3.5529 C.ar    1  UNL1        0.0016
      7 C          66.2571   96.8551   -2.0580 C.ar    1  UNL1        0.0016
      8 C          65.0603   96.4889   -1.2313 C.ar    1  UNL1        0.0188
      9 C          63.8041   96.0140   -1.8995 C.ar    1  UNL1        0.0801
     10 N          60.1788   94.7266   -2.4147 N.pl3   1  UNL1       -0.2794
     11 C          59.8962   93.2598   -2.2795 C.3     1  UNL1        0.0949
     12 C          58.4799   92.7741   -2.1880 C.3     1  UNL1        0.0375
     13 C          57.3463   93.7554   -2.2317 C.3     1  UNL1        0.0610
     14 C          57.6289   95.2222   -2.3670 C.3     1  UNL1        0.0375
     15 C          59.0452   95.7079   -2.4585 C.3     1  UNL1        0.0949
     16 N          55.9300   93.2697   -2.1402 N.3     1  UNL1       -0.2715
     17 C          55.6295   91.8057   -2.2675 C.3     1  UNL1        0.0896
     18 C          54.8143   94.2481   -1.9215 C.3     1  UNL1        0.0896
     19 C          62.0943   95.5390    0.0994 C.3     1  UNL1        0.1354
     20 C          63.4000   90.6952    3.3907 C.3     1  UNL1        0.0310
     21 C          63.0736   91.9062    2.5678 C.ar    1  UNL1       -0.0219
     22 C          61.6721   92.4401    2.5424 C.ar    1  UNL1       -0.0045
     23 C          61.3456   93.6510    1.7196 C.ar    1  UNL1       -0.0027
     24 C          62.4207   94.3281    0.9222 C.ar    1  UNL1        0.0004
     25 C          63.8223   93.7942    0.9476 C.ar    1  UNL1       -0.0027
     26 C          64.1487   92.5832    1.7705 C.ar    1  UNL1       -0.0045
@<TRIPOS>BOND
     1    20    21    1
     2    21    22   ar
     3    22    23   ar
     4    23    24   ar
     5    24    19    1
     6    19     1    1
     7     1     2   ar
     8     2    10    1
     9    10    11    1
    10    11    12    1
    11    12    13    1
    12    13    16    1
    13    16    17    1
    14    16    18    1
    15    13    14    1
    16    14    15    1
    17     2     3   ar
    18     3     4   ar
    19     4     5   ar
    20     5     6   ar
    21     6     7   ar
    22     7     8   ar
    23     8     9   ar
    24    24    25   ar
    25    25    26   ar
    26    26    21   ar
    27     9     1   ar
    28    15    10    1
    29     9     4   ar
@<TRIPOS>MOLECULE
*****
 26 29 0 0 0
SMALL
GASTEIGER

@<TRIPOS>ATOM
      1 N          61.9751   87.1860   11.2606 N.ar    1  UNL1       -0.2954
      2 C          61.6004   86.8119    9.8571 C.ar    1  UNL1        0.2014
      3 N          62.1139   85.4273    9.5938 N.ar    1  UNL1       -0.2136
      4 C          62.8058   84.9457   10.8345 C.ar    1  UNL1        0.0999
      5 C          63.5029   83.6579   11.1593 C.ar    1  UNL1        0.0207
      6 C          64.1143   83.4571   12.5142 C.ar    1  UNL1        0.0016
      7 C          64.0285   84.5440   13.5443 C.ar    1  UNL1        0.0016
      8 C          63.3314   85.8318   13.2195 C.ar    1  UNL1        0.0188
      9 C          62.7200   86.0327   11.8646 C.ar    1  UNL1        0.0801
     10 N          60.8449   87.6714    8.8873 N.pl3   1  UNL1       -0.2794
     11 C          60.0591   87.0377    7.7779 C.3     1  UNL1        0.0949
     12 C          59.3037   87.8972    6.8080 C.3     1  UNL1        0.0375
     13 C          59.3340   89.3904    6.9477 C.3     1  UNL1        0.0610
     14 C          60.1199   90.0240    8.0571 C.3     1  UNL1        0.0375
     15 C          60.8753   89.1645    9.0269 C.3     1  UNL1        0.0949
     16 N          58.5786   90.2499    5.9778 N.3     1  UNL1       -0.2715
     17 C          57.0836   90.1566    5.8997 C.3     1  UNL1        0.0896
     18 C          59.3182   91.2027    5.0862 C.3     1  UNL1        0.0896
     19 C          61.6600   88.4853   11.9406 C.3     1  UNL1        0.1354
     20 C          66.0094   92.5091   12.8852 C.3     1  UNL1        0.0310
     21 C          64.9220   91.5032   12.6490 C.ar    1  UNL1       -0.0219
     22 C          64.6421   90.4464   13.6761 C.ar    1  UNL1       -0.0045
     23 C          63.5547   89.4404   13.4399 C.ar    1  UNL1       -0.0027
     24 C          62.7473   89.4912   12.1767 C.ar    1  UNL1        0.0004
     25 C          63.0273   90.5481   11.1497 C.ar    1  UNL1       -0.0027
     26 C          64.1147   91.5540   11.3859 C.ar    1  UNL1       -0.0045
@<TRIPOS>BOND
     1    20    21    1
     2    21    22   ar
     3    22    23   ar
     4    23    24   ar
     5    24    19    1
     6    19     1    1
     7     1     2   ar
     8     2    10    1
     9    10    11    1
    10    11    12    1
    11    12    13    1
    12    13    16    1
    13    16    17    1
    14    16    18    1
    15    13    14    1
    16    14    15    1
    17     2     3   ar
    18     3     4   ar
    19     4     5   ar
    20     5     6   ar
    21     6     7   ar
    22     7     8   ar
    23     8     9   ar
    24    24    25   ar
    25    25    26   ar
    26    26    21   ar
    27     9     1   ar
    28    15    10    1
    29     9     4   ar
@<TRIPOS>MOLECULE
*****
 26 29 0 0 0
SMALL
GASTEIGER

@<TRIPOS>ATOM
      1 N          62.6907   87.1585   11.2935 N.ar    1  UNL1       -0.2954
      2 C          62.9441   86.4685   12.6010 C.ar    1  UNL1        0.2014
      3 N          63.4777   87.4854   13.5659 N.ar    1  UNL1       -0.2136
      4 C          63.5541   88.8039   12.8548 C.ar    1  UNL1        0.0999
      5 C          64.0036   90.1624   13.3046 C.ar    1  UNL1        0.0207
      6 C          63.9669   91.3188   12.3500 C.ar    1  UNL1        0.0016
      7 C          63.4805   91.1167   10.9455 C.ar    1  UNL1        0.0016
      8 C          63.0309   89.7582   10.4956 C.ar    1  UNL1        0.0188
      9 C          63.0677   88.6018   11.4503 C.ar    1  UNL1        0.0801
     10 N          62.7057   85.0165   12.8925 N.pl3   1  UNL1       -0.2794
     11 C          62.4811   84.5619   14.3041 C.3     1  UNL1        0.0949
     12 C          62.2428   83.1100   14.5956 C.3     1  UNL1        0.0375
     13 C          62.2290   82.1125   13.4754 C.3     1  UNL1        0.0610
     14 C          62.4537   82.5671   12.0637 C.3     1  UNL1        0.0375
     15 C          62.6920   84.0191   11.7723 C.3     1  UNL1        0.0949
     16 N          61.9907   80.6606   13.7668 N.3     1  UNL1       -0.2715
     17 C          63.1113   79.6735   13.6258 C.3     1  UNL1        0.0896
     18 C          60.6318   80.1956   14.1993 C.3     1  UNL1        0.0896
     19 C          62.1545   86.5176   10.0477 C.3     1  UNL1        0.1354
     20 C          58.3325   89.5242    6.5332 C.3     1  UNL1        0.0310
     21 C          59.2880   88.7726    7.4119 C.ar    1  UNL1       -0.0219
     22 C          59.4832   87.2980    7.2184 C.ar    1  UNL1       -0.0045
     23 C          60.4388   86.5463    8.0970 C.ar    1  UNL1       -0.0027
     24 C          61.1991   87.2693    9.1692 C.ar    1  UNL1        0.0004
     25 C          61.0038   88.7439    9.3626 C.ar    1  UNL1       -0.0027
     26 C          60.0482   89.4955    8.4840 C.ar    1  UNL1       -0.0045
@<TRIPOS>BOND
     1    20    21    1
     2    21    22   ar
     3    22    23   ar
     4    23    24   ar
     5    24    19    1
     6    19     1    1
     7     1     2   ar
     8     2    10    1
     9    10    11    1
    10    11    12    1
    11    12    13    1
    12    13    16    1
    13    16    17    1
    14    16    18    1
    15    13    14    1
    16    14    15    1
    17     2     3   ar
    18     3     4   ar
    19     4     5   ar
    20     5     6   ar
    21     6     7   ar
    22     7     8   ar
    23     8     9   ar
    24    24    25   ar
    25    25    26   ar
    26    26    21   ar
    27     9     1   ar
    28    15    10    1
    29     9     4   ar
