@<TRIPOS>MOLECULE
*****
 24 26 0 0 0
SMALL
GASTEIGER

@<TRIPOS>ATOM
      1 C          59.2673   89.0250    7.0590 C.3     1  UNL1        0.0307
      2 C          60.1209   88.8821    8.2842 C.ar    1  UNL1       -0.0244
      3 C          60.6272   90.1036    8.9922 C.ar    1  UNL1       -0.0045
      4 C          61.4807   89.9607   10.2174 C.ar    1  UNL1        0.0013
      5 C          61.8280   88.5962   10.7345 C.ar    1  UNL1        0.0214
      6 C          62.6815   88.4533   11.9597 C.ar    1  UNL1        0.0506
      7 C          63.0288   87.0888   12.4768 C.ar    1  UNL1        0.1522
      8 O          63.8823   86.9458   13.7020 O.3     1  UNL1       -0.5039
      9 C          62.5225   85.8671   11.7688 C.ar    1  UNL1        0.1148
     10 N          61.6689   86.0100   10.5436 N.ar    1  UNL1       -0.2426
     11 C          61.3217   87.3746   10.0265 C.ar    1  UNL1        0.0772
     12 C          60.4681   87.5176    8.8013 C.ar    1  UNL1       -0.0081
     13 C          59.9618   86.2959    8.0933 C.3     1  UNL1        0.0323
     14 H          64.1986   87.7089   14.1443 H       1  UNL1        0.2923
     15 C          62.8697   84.5026   12.2859 C.ar    1  UNL1        0.0207
     16 C          62.4006   84.0736   13.6446 C.ar    1  UNL1        0.0025
     17 C          62.7479   82.7091   14.1617 C.ar    1  UNL1        0.0114
     18 C          63.5642   81.7735   13.3202 C.ar    1  UNL1        0.0577
     19 CL         63.9115   80.4090   13.8373 Cl      1  UNL1       -0.0822
     20 C          64.0334   82.2024   11.9616 C.ar    1  UNL1        0.0114
     21 C          63.6861   83.5669   11.4444 C.ar    1  UNL1        0.0025
     22 C          63.1878   89.6749   12.6677 C.2     1  UNL1        0.0759
     23 O          63.8950   90.7497   11.8965 O.co2   1  UNL1       -0.5445
     24 O          62.9870   89.8217   14.1469 O.co2   1  UNL1       -0.5445
@<TRIPOS>UNITY_ATOM_ATTR
23 1
charge -1
@<TRIPOS>BOND
     1     1     2    1
     2     2     3   ar
     3     3     4   ar
     4     4     5   ar
     5     5     6   ar
     6     6    22    1
     7    22    23   ar
     8    22    24   ar
     9     6     7   ar
    10     7     8    1
    11     7     9   ar
    12     9    15    1
    13    15    16   ar
    14    16    17   ar
    15    17    18   ar
    16    18    19    1
    17    18    20   ar
    18    20    21   ar
    19     9    10   ar
    20    10    11   ar
    21    11    12   ar
    22    12    13    1
    23    12     2   ar
    24    11     5   ar
    25    21    15   ar
    26     8    14    1
@<TRIPOS>MOLECULE
*****
 24 26 0 0 0
SMALL
GASTEIGER

@<TRIPOS>ATOM
      1 C          64.9736   91.6054   14.2404 C.3     1  UNL1        0.0307
      2 C          64.2107   90.6609   13.3596 C.ar    1  UNL1       -0.0244
      3 C          63.4621   91.1841   12.1697 C.ar    1  UNL1       -0.0045
      4 C          62.6992   90.2396   11.2889 C.ar    1  UNL1        0.0013
      5 C          62.6849   88.7719   11.5979 C.ar    1  UNL1        0.0214
      6 C          61.9219   87.8274   10.7170 C.ar    1  UNL1        0.0506
      7 C          61.9076   86.3597   11.0260 C.ar    1  UNL1        0.1522
      8 O          61.1447   85.4152   10.1452 O.3     1  UNL1       -0.5039
      9 C          62.6562   85.8364   12.2159 C.ar    1  UNL1        0.1148
     10 N          63.4191   86.7809   13.0968 N.ar    1  UNL1       -0.2426
     11 C          63.4334   88.2487   12.7877 C.ar    1  UNL1        0.0772
     12 C          64.1964   89.1932   13.6686 C.ar    1  UNL1       -0.0081
     13 C          64.9450   88.6699   14.8585 C.3     1  UNL1        0.0323
     14 H          60.6771   85.7421    9.4019 H       1  UNL1        0.2923
     15 C          62.6419   84.3687   12.5249 C.ar    1  UNL1        0.0207
     16 C          62.9452   83.3720   11.4457 C.ar    1  UNL1        0.0025
     17 C          62.9308   81.9043   11.7547 C.ar    1  UNL1        0.0114
     18 C          62.6132   81.4331   13.1429 C.ar    1  UNL1        0.0577
     19 CL         62.5989   79.9654   13.4519 Cl      1  UNL1       -0.0822
     20 C          62.3100   82.4297   14.2221 C.ar    1  UNL1        0.0114
     21 C          62.3243   83.8975   13.9132 C.ar    1  UNL1        0.0025
     22 C          61.1733   88.3507    9.5272 C.2     1  UNL1        0.0759
     23 O          60.6183   89.7442    9.5437 O.co2   1  UNL1       -0.5445
     24 O          60.9797   87.4805    8.3208 O.co2   1  UNL1       -0.5445
@<TRIPOS>UNITY_ATOM_ATTR
23 1
charge -1
@<TRIPOS>BOND
     1     1     2    1
     2     2     3   ar
     3     3     4   ar
     4     4     5   ar
     5     5     6   ar
     6     6    22    1
     7    22    23   ar
     8    22    24   ar
     9     6     7   ar
    10     7     8    1
    11     7     9   ar
    12     9    15    1
    13    15    16   ar
    14    16    17   ar
    15    17    18   ar
    16    18    19    1
    17    18    20   ar
    18    20    21   ar
    19     9    10   ar
    20    10    11   ar
    21    11    12   ar
    22    12    13    1
    23    12     2   ar
    24    11     5   ar
    25    21    15   ar
    26     8    14    1
@<TRIPOS>MOLECULE
*****
 24 26 0 0 0
SMALL
GASTEIGER

@<TRIPOS>ATOM
      1 C          63.8407   81.4931   13.3382 C.3     1  UNL1        0.0307
      2 C          63.5067   82.8726   12.8529 C.ar    1  UNL1       -0.0244
      3 C          62.8074   83.0563   11.5386 C.ar    1  UNL1       -0.0045
      4 C          62.4733   84.4358   11.0532 C.ar    1  UNL1        0.0013
      5 C          62.8385   85.6314   11.8821 C.ar    1  UNL1        0.0214
      6 C          62.5044   87.0108   11.3967 C.ar    1  UNL1        0.0506
      7 C          62.8696   88.2065   12.2255 C.ar    1  UNL1        0.1522
      8 O          62.5355   89.5859   11.7401 O.3     1  UNL1       -0.5039
      9 C          63.5689   88.0227   13.5398 C.ar    1  UNL1        0.1148
     10 N          63.9030   86.6433   14.0252 N.ar    1  UNL1       -0.2426
     11 C          63.5378   85.4476   13.1963 C.ar    1  UNL1        0.0772
     12 C          63.8718   84.0682   13.6817 C.ar    1  UNL1       -0.0081
     13 C          64.5711   83.8845   14.9960 C.3     1  UNL1        0.0323
     14 H          62.0987   89.7007   10.9192 H       1  UNL1        0.2923
     15 C          63.9341   89.2184   14.3687 C.ar    1  UNL1        0.0207
     16 C          63.2882   89.4296   15.7060 C.ar    1  UNL1        0.0025
     17 C          63.6534   90.6252   16.5348 C.ar    1  UNL1        0.0114
     18 C          64.6644   91.6097   16.0264 C.ar    1  UNL1        0.0577
     19 CL         65.0296   92.8054   16.8552 Cl      1  UNL1       -0.0822
     20 C          65.3103   91.3986   14.6892 C.ar    1  UNL1        0.0114
     21 C          64.9451   90.2029   13.8603 C.ar    1  UNL1        0.0025
     22 C          61.8052   87.1946   10.0825 C.2     1  UNL1        0.0759
     23 O          60.4470   87.8298   10.0379 O.co2   1  UNL1       -0.5445
     24 O          62.4640   86.7432    8.8128 O.co2   1  UNL1       -0.5445
@<TRIPOS>UNITY_ATOM_ATTR
23 1
charge -1
@<TRIPOS>BOND
     1     1     2    1
     2     2     3   ar
     3     3     4   ar
     4     4     5   ar
     5     5     6   ar
     6     6    22    1
     7    22    23   ar
     8    22    24   ar
     9     6     7   ar
    10     7     8    1
    11     7     9   ar
    12     9    15    1
    13    15    16   ar
    14    16    17   ar
    15    17    18   ar
    16    18    19    1
    17    18    20   ar
    18    20    21   ar
    19     9    10   ar
    20    10    11   ar
    21    11    12   ar
    22    12    13    1
    23    12     2   ar
    24    11     5   ar
    25    21    15   ar
    26     8    14    1
@<TRIPOS>MOLECULE
*****
 24 26 0 0 0
SMALL
GASTEIGER

@<TRIPOS>ATOM
      1 C          59.2098   88.9859    7.0998 C.3     1  UNL1        0.0307
      2 C          60.0845   88.7962    8.3035 C.ar    1  UNL1       -0.0244
      3 C          60.6896   89.9870    8.9860 C.ar    1  UNL1       -0.0045
      4 C          61.5643   89.7974   10.1897 C.ar    1  UNL1        0.0013
      5 C          61.8339   88.4170   10.7109 C.ar    1  UNL1        0.0214
      6 C          62.7086   88.2273   11.9146 C.ar    1  UNL1        0.0506
      7 C          62.9783   86.8469   12.4358 C.ar    1  UNL1        0.1522
      8 O          63.8530   86.6573   13.6395 O.3     1  UNL1       -0.5039
      9 C          62.3732   85.6560   11.7533 C.ar    1  UNL1        0.1148
     10 N          61.4985   85.8457   10.5496 N.ar    1  UNL1       -0.2426
     11 C          61.2289   87.2262   10.0284 C.ar    1  UNL1        0.0772
     12 C          60.3541   87.4158    8.8247 C.ar    1  UNL1       -0.0081
     13 C          59.7491   86.2249    8.1422 C.3     1  UNL1        0.0323
     14 H          64.2310   87.4011   14.0658 H       1  UNL1        0.2923
     15 C          62.6429   84.2756   12.2745 C.ar    1  UNL1        0.0207
     16 C          63.2334   83.2346   11.3702 C.ar    1  UNL1        0.0025
     17 C          63.5030   81.8541   11.8914 C.ar    1  UNL1        0.0114
     18 C          63.1822   81.5147   13.3168 C.ar    1  UNL1        0.0577
     19 CL         63.4518   80.1343   13.8380 Cl      1  UNL1       -0.0822
     20 C          62.5917   82.5557   14.2211 C.ar    1  UNL1        0.0114
     21 C          62.3220   83.9362   13.6999 C.ar    1  UNL1        0.0025
     22 C          63.3137   89.4181   12.5971 C.2     1  UNL1        0.0759
     23 O          64.2977   89.2236   13.7125 O.co2   1  UNL1       -0.5445
     24 O          62.9348   90.8034   12.1643 O.co2   1  UNL1       -0.5445
@<TRIPOS>UNITY_ATOM_ATTR
23 1
charge -1
@<TRIPOS>BOND
     1     1     2    1
     2     2     3   ar
     3     3     4   ar
     4     4     5   ar
     5     5     6   ar
     6     6    22    1
     7    22    23   ar
     8    22    24   ar
     9     6     7   ar
    10     7     8    1
    11     7     9   ar
    12     9    15    1
    13    15    16   ar
    14    16    17   ar
    15    17    18   ar
    16    18    19    1
    17    18    20   ar
    18    20    21   ar
    19     9    10   ar
    20    10    11   ar
    21    11    12   ar
    22    12    13    1
    23    12     2   ar
    24    11     5   ar
    25    21    15   ar
    26     8    14    1
@<TRIPOS>MOLECULE
*****
 24 26 0 0 0
SMALL
GASTEIGER

@<TRIPOS>ATOM
      1 C          59.3822   88.1554    7.5494 C.3     1  UNL1        0.0307
      2 C          60.2440   87.6989    8.6891 C.ar    1  UNL1       -0.0244
      3 C          60.4580   86.2335    8.9275 C.ar    1  UNL1       -0.0045
      4 C          61.3197   85.7770   10.0672 C.ar    1  UNL1        0.0013
      5 C          61.9675   86.7859   10.9686 C.ar    1  UNL1        0.0214
      6 C          62.8293   86.3293   12.1083 C.ar    1  UNL1        0.0506
      7 C          63.4771   87.3382   13.0097 C.ar    1  UNL1        0.1522
      8 O          64.3389   86.8817   14.1494 O.3     1  UNL1       -0.5039
      9 C          63.2631   88.8037   12.7713 C.ar    1  UNL1        0.1148
     10 N          62.4014   89.2602   11.6316 N.ar    1  UNL1       -0.2426
     11 C          61.7536   88.2512   10.7302 C.ar    1  UNL1        0.0772
     12 C          60.8918   88.7078    9.5905 C.ar    1  UNL1       -0.0081
     13 C          60.6778   90.1732    9.3522 C.3     1  UNL1        0.0323
     14 H          64.4725   85.9663   14.2982 H       1  UNL1        0.2923
     15 C          63.9109   89.8125   13.6727 C.ar    1  UNL1        0.0207
     16 C          63.4450   89.9597   15.0909 C.ar    1  UNL1        0.0025
     17 C          64.0928   90.9686   15.9923 C.ar    1  UNL1        0.0114
     18 C          65.2065   91.8303   15.4756 C.ar    1  UNL1        0.0577
     19 CL         65.8543   92.8391   16.3769 Cl      1  UNL1       -0.0822
     20 C          65.6725   91.6831   14.0574 C.ar    1  UNL1        0.0114
     21 C          65.0247   90.6742   13.1559 C.ar    1  UNL1        0.0025
     22 C          63.0433   84.8640   12.3466 C.2     1  UNL1        0.0759
     23 O          63.6608   84.0125   11.2772 O.co2   1  UNL1       -0.5445
     24 O          62.6397   84.2500   13.6544 O.co2   1  UNL1       -0.5445
@<TRIPOS>UNITY_ATOM_ATTR
23 1
charge -1
@<TRIPOS>BOND
     1     1     2    1
     2     2     3   ar
     3     3     4   ar
     4     4     5   ar
     5     5     6   ar
     6     6    22    1
     7    22    23   ar
     8    22    24   ar
     9     6     7   ar
    10     7     8    1
    11     7     9   ar
    12     9    15    1
    13    15    16   ar
    14    16    17   ar
    15    17    18   ar
    16    18    19    1
    17    18    20   ar
    18    20    21   ar
    19     9    10   ar
    20    10    11   ar
    21    11    12   ar
    22    12    13    1
    23    12     2   ar
    24    11     5   ar
    25    21    15   ar
    26     8    14    1
@<TRIPOS>MOLECULE
*****
 24 26 0 0 0
SMALL
GASTEIGER

@<TRIPOS>ATOM
      1 C          61.4389   89.7353    9.7031 C.3     1  UNL1        0.0307
      2 C          62.0233   88.7463   10.6676 C.ar    1  UNL1       -0.0244
      3 C          62.6960   89.2268   11.9192 C.ar    1  UNL1       -0.0045
      4 C          63.2805   88.2378   12.8837 C.ar    1  UNL1        0.0013
      5 C          63.1922   86.7682   12.5966 C.ar    1  UNL1        0.0214
      6 C          63.7766   85.7792   13.5612 C.ar    1  UNL1        0.0506
      7 C          63.6883   84.3096   13.2741 C.ar    1  UNL1        0.1522
      8 O          64.2728   83.3206   14.2386 O.3     1  UNL1       -0.5039
      9 C          63.0156   83.8290   12.0225 C.ar    1  UNL1        0.1148
     10 N          62.4312   84.8180   11.0580 N.ar    1  UNL1       -0.2426
     11 C          62.5195   86.2876   11.3451 C.ar    1  UNL1        0.0772
     12 C          61.9351   87.2767   10.3806 C.ar    1  UNL1       -0.0081
     13 C          61.2623   86.7960    9.1289 C.3     1  UNL1        0.0323
     14 H          64.6930   83.6208   15.0205 H       1  UNL1        0.2923
     15 C          62.9273   82.3594   11.7354 C.ar    1  UNL1        0.0207
     16 C          63.3017   81.8360   10.3804 C.ar    1  UNL1        0.0025
     17 C          63.2134   80.3664   10.0933 C.ar    1  UNL1        0.0114
     18 C          62.7508   79.4201   11.1613 C.ar    1  UNL1        0.0577
     19 CL         62.6625   77.9505   10.8742 Cl      1  UNL1       -0.0822
     20 C          62.3765   79.9434   12.5163 C.ar    1  UNL1        0.0114
     21 C          62.4648   81.4130   12.8034 C.ar    1  UNL1        0.0025
     22 C          64.4493   86.2598   14.8127 C.2     1  UNL1        0.0759
     23 O          65.9015   85.9640   15.0447 O.co2   1  UNL1       -0.5445
     24 O          63.6699   87.0362   15.8324 O.co2   1  UNL1       -0.5445
@<TRIPOS>UNITY_ATOM_ATTR
23 1
charge -1
@<TRIPOS>BOND
     1     1     2    1
     2     2     3   ar
     3     3     4   ar
     4     4     5   ar
     5     5     6   ar
     6     6    22    1
     7    22    23   ar
     8    22    24   ar
     9     6     7   ar
    10     7     8    1
    11     7     9   ar
    12     9    15    1
    13    15    16   ar
    14    16    17   ar
    15    17    18   ar
    16    18    19    1
    17    18    20   ar
    18    20    21   ar
    19     9    10   ar
    20    10    11   ar
    21    11    12   ar
    22    12    13    1
    23    12     2   ar
    24    11     5   ar
    25    21    15   ar
    26     8    14    1
@<TRIPOS>MOLECULE
*****
 24 26 0 0 0
SMALL
GASTEIGER

@<TRIPOS>ATOM
      1 C          62.7366   82.8479   11.9772 C.3     1  UNL1        0.0307
      2 C          62.5225   84.3178   11.7685 C.ar    1  UNL1       -0.0244
      3 C          61.5638   84.7943   10.7178 C.ar    1  UNL1       -0.0045
      4 C          61.3497   86.2642   10.5091 C.ar    1  UNL1        0.0013
      5 C          62.0942   87.2576   11.3509 C.ar    1  UNL1        0.0214
      6 C          61.8800   88.7275   11.1422 C.ar    1  UNL1        0.0506
      7 C          62.6246   89.7209   11.9840 C.ar    1  UNL1        0.1522
      8 O          62.4104   91.1908   11.7752 O.3     1  UNL1       -0.5039
      9 C          63.5833   89.2444   13.0347 C.ar    1  UNL1        0.1148
     10 N          63.7975   87.7745   13.2435 N.ar    1  UNL1       -0.2426
     11 C          63.0529   86.7811   12.4015 C.ar    1  UNL1        0.0772
     12 C          63.2670   85.3112   12.6103 C.ar    1  UNL1       -0.0081
     13 C          64.2258   84.8348   13.6610 C.3     1  UNL1        0.0323
     14 H          61.8116   91.4884   11.1189 H       1  UNL1        0.2923
     15 C          64.3279   90.2378   13.8765 C.ar    1  UNL1        0.0207
     16 C          65.5241   90.9486   13.3162 C.ar    1  UNL1        0.0025
     17 C          66.2687   91.9420   14.1581 C.ar    1  UNL1        0.0114
     18 C          65.8170   92.2247   15.5603 C.ar    1  UNL1        0.0577
     19 CL         66.5615   93.2181   16.4021 Cl      1  UNL1       -0.0822
     20 C          64.6208   91.5140   16.1206 C.ar    1  UNL1        0.0114
     21 C          63.8762   90.5205   15.2787 C.ar    1  UNL1        0.0025
     22 C          60.9214   89.2040   10.0915 C.2     1  UNL1        0.0759
     23 O          59.9959   90.3477   10.3839 O.co2   1  UNL1       -0.5445
     24 O          60.8881   88.5367    8.7485 O.co2   1  UNL1       -0.5445
@<TRIPOS>UNITY_ATOM_ATTR
23 1
charge -1
@<TRIPOS>BOND
     1     1     2    1
     2     2     3   ar
     3     3     4   ar
     4     4     5   ar
     5     5     6   ar
     6     6    22    1
     7    22    23   ar
     8    22    24   ar
     9     6     7   ar
    10     7     8    1
    11     7     9   ar
    12     9    15    1
    13    15    16   ar
    14    16    17   ar
    15    17    18   ar
    16    18    19    1
    17    18    20   ar
    18    20    21   ar
    19     9    10   ar
    20    10    11   ar
    21    11    12   ar
    22    12    13    1
    23    12     2   ar
    24    11     5   ar
    25    21    15   ar
    26     8    14    1
@<TRIPOS>MOLECULE
*****
 24 26 0 0 0
SMALL
GASTEIGER

@<TRIPOS>ATOM
      1 C          64.5449   83.2204   14.8563 C.3     1  UNL1        0.0307
      2 C          64.2834   84.6378   14.4408 C.ar    1  UNL1       -0.0244
      3 C          64.8493   85.7713   15.2438 C.ar    1  UNL1       -0.0045
      4 C          64.5877   87.1887   14.8283 C.ar    1  UNL1        0.0013
      5 C          63.7602   87.4726   13.6099 C.ar    1  UNL1        0.0214
      6 C          63.4986   88.8900   13.1945 C.ar    1  UNL1        0.0506
      7 C          62.6711   89.1738   11.9761 C.ar    1  UNL1        0.1522
      8 O          62.4095   90.5912   11.5606 O.3     1  UNL1       -0.5039
      9 C          62.1051   88.0403   11.1731 C.ar    1  UNL1        0.1148
     10 N          62.3666   86.6229   11.5885 N.ar    1  UNL1       -0.2426
     11 C          63.1942   86.3391   12.8070 C.ar    1  UNL1        0.0772
     12 C          63.4558   84.9217   13.2224 C.ar    1  UNL1       -0.0081
     13 C          62.8898   83.7881   12.4194 C.3     1  UNL1        0.0323
     14 H          62.7631   91.2993   12.0622 H       1  UNL1        0.2923
     15 C          61.2775   88.3242    9.9547 C.ar    1  UNL1        0.0207
     16 C          60.8970   89.7357    9.6186 C.ar    1  UNL1        0.0025
     17 C          60.0695   90.0196    8.4002 C.ar    1  UNL1        0.0114
     18 C          59.6224   88.8920    7.5178 C.ar    1  UNL1        0.0577
     19 CL         58.7948   89.1758    6.2994 Cl      1  UNL1       -0.0822
     20 C          60.0028   87.4805    7.8538 C.ar    1  UNL1        0.0114
     21 C          60.8304   87.1965    9.0723 C.ar    1  UNL1        0.0025
     22 C          64.0646   90.0235   13.9974 C.2     1  UNL1        0.0759
     23 O          65.3533   90.6680   13.5803 O.co2   1  UNL1       -0.5445
     24 O          63.3420   90.5125   15.2175 O.co2   1  UNL1       -0.5445
@<TRIPOS>UNITY_ATOM_ATTR
23 1
charge -1
@<TRIPOS>BOND
     1     1     2    1
     2     2     3   ar
     3     3     4   ar
     4     4     5   ar
     5     5     6   ar
     6     6    22    1
     7    22    23   ar
     8    22    24   ar
     9     6     7   ar
    10     7     8    1
    11     7     9   ar
    12     9    15    1
    13    15    16   ar
    14    16    17   ar
    15    17    18   ar
    16    18    19    1
    17    18    20   ar
    18    20    21   ar
    19     9    10   ar
    20    10    11   ar
    21    11    12   ar
    22    12    13    1
    23    12     2   ar
    24    11     5   ar
    25    21    15   ar
    26     8    14    1
@<TRIPOS>MOLECULE
*****
 24 26 0 0 0
SMALL
GASTEIGER

@<TRIPOS>ATOM
      1 C          64.0063   81.1099   13.7945 C.3     1  UNL1        0.0307
      2 C          63.8436   82.5959   13.6705 C.ar    1  UNL1       -0.0244
      3 C          64.4536   83.5052   14.6957 C.ar    1  UNL1       -0.0045
      4 C          64.2909   84.9912   14.5717 C.ar    1  UNL1        0.0013
      5 C          63.5183   85.5679   13.4226 C.ar    1  UNL1        0.0214
      6 C          63.3556   87.0539   13.2987 C.ar    1  UNL1        0.0506
      7 C          62.5829   87.6305   12.1496 C.ar    1  UNL1        0.1522
      8 O          62.4202   89.1165   12.0257 O.3     1  UNL1       -0.5039
      9 C          61.9728   86.7211   11.1244 C.ar    1  UNL1        0.1148
     10 N          62.1355   85.2351   11.2484 N.ar    1  UNL1       -0.2426
     11 C          62.9082   84.6585   12.3975 C.ar    1  UNL1        0.0772
     12 C          63.0709   83.1725   12.5215 C.ar    1  UNL1       -0.0081
     13 C          62.4609   82.2631   11.4963 C.3     1  UNL1        0.0323
     14 H          62.8013   89.6845   12.6661 H       1  UNL1        0.2923
     15 C          61.2001   87.2978    9.9754 C.ar    1  UNL1        0.0207
     16 C          61.1110   88.7852    9.8027 C.ar    1  UNL1        0.0025
     17 C          60.3383   89.3618    8.6536 C.ar    1  UNL1        0.0114
     18 C          59.6547   88.4511    7.6772 C.ar    1  UNL1        0.0577
     19 CL         58.8820   89.0278    6.5281 Cl      1  UNL1       -0.0822
     20 C          59.7438   86.9638    7.8499 C.ar    1  UNL1        0.0114
     21 C          60.5165   86.3871    8.9990 C.ar    1  UNL1        0.0025
     22 C          63.9656   87.9632   14.3238 C.2     1  UNL1        0.0759
     23 O          63.8866   87.6118   15.7800 O.co2   1  UNL1       -0.5445
     24 O          64.6546   89.2240   13.8929 O.co2   1  UNL1       -0.5445
@<TRIPOS>UNITY_ATOM_ATTR
23 1
charge -1
@<TRIPOS>BOND
     1     1     2    1
     2     2     3   ar
     3     3     4   ar
     4     4     5   ar
     5     5     6   ar
     6     6    22    1
     7    22    23   ar
     8    22    24   ar
     9     6     7   ar
    10     7     8    1
    11     7     9   ar
    12     9    15    1
    13    15    16   ar
    14    16    17   ar
    15    17    18   ar
    16    18    19    1
    17    18    20   ar
    18    20    21   ar
    19     9    10   ar
    20    10    11   ar
    21    11    12   ar
    22    12    13    1
    23    12     2   ar
    24    11     5   ar
    25    21    15   ar
    26     8    14    1
