@<TRIPOS>MOLECULE
*****
 34 37 0 0 0
SMALL
GASTEIGER

@<TRIPOS>ATOM
      1 C          62.8224   89.2490   11.6307 C.ar    1  UNL1        0.0505
      2 C          61.6224   89.7337   10.8722 C.ar    1  UNL1        0.0170
      3 C          60.6584   88.7468   10.2833 C.ar    1  UNL1        0.0307
      4 C          60.8944   87.2752   10.4529 C.ar    1  UNL1        0.1401
      5 F          59.9304   86.2883    9.8640 F       1  UNL1       -0.2044
      6 C          62.0943   86.7905   11.2113 C.ar    1  UNL1        0.0522
      7 C          63.0583   87.7773   11.8002 C.ar    1  UNL1        0.0167
      8 C          62.3302   85.3189   11.3808 C.3     1  UNL1        0.2163
      9 C          62.1513   85.3843    9.8929 C.3     1  UNL1        0.0601
     10 C          62.5040   83.8699   11.0336 C.3     1  UNL1        0.1614
     11 N          62.7747   82.8667   12.1153 N.ar    1  UNL1       -0.2929
     12 C          62.9888   81.3826   12.0770 C.ar    1  UNL1        0.1503
     13 C          63.2180   80.9110   13.4824 C.ar    1  UNL1        0.1285
     14 N          63.1457   82.1036   14.3892 N.ar    1  UNL1       -0.2180
     15 C          62.8716   83.3124   13.5443 C.ar    1  UNL1        0.2279
     16 C          62.6979   84.7613   13.8915 C.2     1  UNL1        0.3476
     17 N          62.7948   85.2069   15.3205 N.pl3   1  UNL1       -0.2439
     18 N          62.4271   85.7645   12.8098 N.2     1  UNL1       -0.0653
     19 H          62.9725   84.5485   16.0305 H       1  UNL1        0.2885
     20 H          62.6808   86.1579   15.5484 H       1  UNL1        0.2885
     21 C          62.9758   80.5213   10.8490 C.1     1  UNL1        0.1196
     22 N          62.9629   79.6600    9.6210 N.1     1  UNL1       -0.1893
     23 C          64.0842   90.2078   13.6894 C.2     1  UNL1        0.2688
     24 O          63.4181   89.1929   14.5704 O.2     1  UNL1       -0.2681
     25 N          63.7864   90.2358   12.2196 N.am    1  UNL1       -0.2791
     26 H          64.2236   90.9019   11.6413 H       1  UNL1        0.1552
     27 C          66.9763   93.1683   15.4560 C.ar    1  UNL1        0.2449
     28 C          65.8125   92.6811   16.2673 C.ar    1  UNL1        0.1565
     29 N          64.8485   91.6942   15.6784 N.ar    1  UNL1       -0.2328
     30 C          65.0483   91.1947   14.2783 C.ar    1  UNL1        0.1541
     31 C          66.2121   91.6818   13.4669 C.ar    1  UNL1        0.1258
     32 N          67.1760   92.6687   14.0558 N.ar    1  UNL1       -0.2071
     33 C          69.4158   93.8927   15.9799 C.3     1  UNL1        0.2543
     34 O          67.9403   94.1552   16.0449 O.3     1  UNL1       -0.4551
@<TRIPOS>BOND
     1    33    34    1
     2    34    27    1
     3    27    28   ar
     4    28    29   ar
     5    29    30   ar
     6    30    23    1
     7    23    24    2
     8    23    25   am
     9    25     1    1
    10     1     2   ar
    11     2     3   ar
    12     3     4   ar
    13     4     5    1
    14     4     6   ar
    15     6     8    1
    16     8     9    1
    17     8    10    1
    18    10    11    1
    19    11    12   ar
    20    12    21    1
    21    21    22    3
    22    12    13   ar
    23    13    14   ar
    24    14    15   ar
    25    15    16    1
    26    16    17    1
    27    16    18    2
    28     6     7   ar
    29    30    31   ar
    30    31    32   ar
    31    32    27   ar
    32     7     1   ar
    33    18     8    1
    34    15    11   ar
    35    25    26    1
    36    17    19    1
    37    17    20    1
@<TRIPOS>MOLECULE
*****
 34 37 0 0 0
SMALL
GASTEIGER

@<TRIPOS>ATOM
      1 C          64.2942   90.5531   13.8329 C.ar    1  UNL1        0.0505
      2 C          64.0055   90.9221   15.2579 C.ar    1  UNL1        0.0170
      3 C          63.6248   89.8593   16.2456 C.ar    1  UNL1        0.0307
      4 C          63.5326   88.4274   15.8082 C.ar    1  UNL1        0.1401
      5 F          63.1519   87.3646   16.7959 F       1  UNL1       -0.2044
      6 C          63.8213   88.0584   14.3833 C.ar    1  UNL1        0.0522
      7 C          64.2021   89.1211   13.3956 C.ar    1  UNL1        0.0167
      8 C          63.7291   86.6264   13.9460 C.3     1  UNL1        0.2163
      9 C          64.3734   86.4478   15.2889 C.3     1  UNL1        0.0601
     10 C          63.8608   85.1324   13.9752 C.3     1  UNL1        0.1614
     11 N          63.3802   84.3144   12.8134 N.ar    1  UNL1       -0.2929
     12 C          63.3777   82.8361   12.5595 C.ar    1  UNL1        0.1503
     13 C          62.7640   82.5983   11.2116 C.ar    1  UNL1        0.1285
     14 N          62.3871   83.9297   10.6325 N.ar    1  UNL1       -0.2180
     15 C          62.7680   84.9903   11.6225 C.ar    1  UNL1        0.2279
     16 C          62.6364   86.4843   11.5933 C.2     1  UNL1        0.3476
     17 N          62.0242   87.1602   10.4024 N.pl3   1  UNL1       -0.2439
     18 N          63.1170   87.3023   12.7552 N.2     1  UNL1       -0.0653
     19 H          61.7087   86.6233    9.6398 H       1  UNL1        0.2885
     20 H          61.9378   88.1407   10.3833 H       1  UNL1        0.2885
     21 C          63.8977   81.7808   13.4901 C.1     1  UNL1        0.1196
     22 N          64.4177   80.7255   14.4207 N.1     1  UNL1       -0.1893
     23 C          66.0774   92.1474   12.8187 C.2     1  UNL1        0.2688
     24 O          67.0990   91.6162   13.7800 O.2     1  UNL1       -0.2681
     25 N          64.6750   91.6158   12.8452 N.am    1  UNL1       -0.2791
     26 H          64.0044   91.9644   12.2143 H       1  UNL1        0.1552
     27 C          67.2196   95.3356    9.8556 C.ar    1  UNL1        0.2449
     28 C          66.4832   95.7057   11.1089 C.ar    1  UNL1        0.1565
     29 N          66.1024   94.6429   12.0966 N.ar    1  UNL1       -0.2328
     30 C          66.4581   93.2102   11.8310 C.ar    1  UNL1        0.1541
     31 C          67.1946   92.8400   10.5777 C.ar    1  UNL1        0.1258
     32 N          67.5753   93.9028    9.5901 N.ar    1  UNL1       -0.2071
     33 C          66.6096   96.8549    7.8382 C.3     1  UNL1        0.2543
     34 O          67.6003   96.3984    8.8679 O.3     1  UNL1       -0.4551
@<TRIPOS>BOND
     1    33    34    1
     2    34    27    1
     3    27    28   ar
     4    28    29   ar
     5    29    30   ar
     6    30    23    1
     7    23    24    2
     8    23    25   am
     9    25     1    1
    10     1     2   ar
    11     2     3   ar
    12     3     4   ar
    13     4     5    1
    14     4     6   ar
    15     6     8    1
    16     8     9    1
    17     8    10    1
    18    10    11    1
    19    11    12   ar
    20    12    21    1
    21    21    22    3
    22    12    13   ar
    23    13    14   ar
    24    14    15   ar
    25    15    16    1
    26    16    17    1
    27    16    18    2
    28     6     7   ar
    29    30    31   ar
    30    31    32   ar
    31    32    27   ar
    32     7     1   ar
    33    18     8    1
    34    15    11   ar
    35    25    26    1
    36    17    19    1
    37    17    20    1
@<TRIPOS>MOLECULE
*****
 34 37 0 0 0
SMALL
GASTEIGER

@<TRIPOS>ATOM
      1 C          61.1787   87.4046   11.0349 C.ar    1  UNL1        0.0505
      2 C          59.7781   87.9365   10.9616 C.ar    1  UNL1        0.0170
      3 C          59.5264   89.4085   11.1033 C.ar    1  UNL1        0.0307
      4 C          60.6754   90.3485   11.3183 C.ar    1  UNL1        0.1401
      5 F          60.4237   91.8204   11.4600 F       1  UNL1       -0.2044
      6 C          62.0759   89.8166   11.3917 C.ar    1  UNL1        0.0522
      7 C          62.3276   88.3447   11.2500 C.ar    1  UNL1        0.0167
      8 C          63.2249   90.7567   11.6067 C.3     1  UNL1        0.2163
      9 C          63.0863   90.8515   10.1161 C.3     1  UNL1        0.0601
     10 C          64.3257   91.7298   11.3040 C.3     1  UNL1        0.1614
     11 N          65.1660   92.2815   12.4172 N.ar    1  UNL1       -0.2929
     12 C          66.3123   93.2489   12.4247 C.ar    1  UNL1        0.1503
     13 C          66.7604   93.4256   13.8453 C.ar    1  UNL1        0.1285
     14 N          65.8910   92.5674   14.7158 N.ar    1  UNL1       -0.2180
     15 C          64.9056   91.8603   13.8331 C.ar    1  UNL1        0.2279
     16 C          63.8048   90.8873   14.1358 C.2     1  UNL1        0.3476
     17 N          63.5444   90.4661   15.5517 N.pl3   1  UNL1       -0.2439
     18 N          62.9645   90.3355   13.0225 N.2     1  UNL1       -0.0653
     19 H          64.0960   90.8282   16.2824 H       1  UNL1        0.2885
     20 H          62.8220   89.8275   15.7503 H       1  UNL1        0.2885
     21 C          66.9063   93.9216   11.2228 C.1     1  UNL1        0.1196
     22 N          67.5002   94.5942   10.0208 N.1     1  UNL1       -0.1893
     23 C          62.3165   85.2253   11.8754 C.2     1  UNL1        0.2688
     24 O          62.9508   85.9899   12.9992 O.2     1  UNL1       -0.2681
     25 N          61.4304   85.9327   10.8932 N.am    1  UNL1       -0.2791
     26 H          61.0141   85.4309   10.1556 H       1  UNL1        0.1552
     27 C          63.0716   80.8096   11.4501 C.ar    1  UNL1        0.2449
     28 C          62.3644   81.3361   12.6636 C.ar    1  UNL1        0.1565
     29 N          62.1127   82.8080   12.8054 N.ar    1  UNL1       -0.2328
     30 C          62.5682   83.7533   11.7336 C.ar    1  UNL1        0.1541
     31 C          63.2754   83.2269   10.5200 C.ar    1  UNL1        0.1258
     32 N          63.5271   81.7550   10.3784 N.ar    1  UNL1       -0.2071
     33 C          62.7750   78.5933   10.1272 C.3     1  UNL1        0.2543
     34 O          63.3234   79.3376   11.3084 O.3     1  UNL1       -0.4551
@<TRIPOS>BOND
     1    33    34    1
     2    34    27    1
     3    27    28   ar
     4    28    29   ar
     5    29    30   ar
     6    30    23    1
     7    23    24    2
     8    23    25   am
     9    25     1    1
    10     1     2   ar
    11     2     3   ar
    12     3     4   ar
    13     4     5    1
    14     4     6   ar
    15     6     8    1
    16     8     9    1
    17     8    10    1
    18    10    11    1
    19    11    12   ar
    20    12    21    1
    21    21    22    3
    22    12    13   ar
    23    13    14   ar
    24    14    15   ar
    25    15    16    1
    26    16    17    1
    27    16    18    2
    28     6     7   ar
    29    30    31   ar
    30    31    32   ar
    31    32    27   ar
    32     7     1   ar
    33    18     8    1
    34    15    11   ar
    35    25    26    1
    36    17    19    1
    37    17    20    1
@<TRIPOS>MOLECULE
*****
 34 37 0 0 0
SMALL
GASTEIGER

@<TRIPOS>ATOM
      1 C          63.4296   86.0811   15.4358 C.ar    1  UNL1        0.0505
      2 C          63.0712   86.3603   16.8654 C.ar    1  UNL1        0.0170
      3 C          63.0680   87.7706   17.3762 C.ar    1  UNL1        0.0307
      4 C          63.4232   88.9018   16.4574 C.ar    1  UNL1        0.1401
      5 F          63.4200   90.3122   16.9682 F       1  UNL1       -0.2044
      6 C          63.7816   88.6227   15.0279 C.ar    1  UNL1        0.0522
      7 C          63.7848   87.2124   14.5171 C.ar    1  UNL1        0.0167
      8 C          64.1368   89.7540   14.1092 C.3     1  UNL1        0.2163
      9 C          64.9912   90.1012   15.2923 C.3     1  UNL1        0.0601
     10 C          64.7888   91.0060   13.6014 C.3     1  UNL1        0.1614
     11 N          64.4630   91.5178   12.2295 N.ar    1  UNL1       -0.2929
     12 C          64.9443   92.7149   11.4645 C.ar    1  UNL1        0.1503
     13 C          64.2640   92.7147   10.1276 C.ar    1  UNL1        0.1285
     14 N          63.3624   91.5175   10.0664 N.ar    1  UNL1       -0.2180
     15 C          63.4854   90.7777   11.3655 C.ar    1  UNL1        0.2279
     16 C          62.8335   89.5259   11.8733 C.2     1  UNL1        0.3476
     17 N          61.8558   88.7858   11.0093 N.pl3   1  UNL1       -0.2439
     18 N          63.1592   89.0141   13.2452 N.2     1  UNL1       -0.0653
     19 H          61.6420   89.1218   10.1090 H       1  UNL1        0.2885
     20 H          61.4279   87.9642   11.3426 H       1  UNL1        0.2885
     21 C          65.9323   93.7333   11.9509 C.1     1  UNL1        0.1196
     22 N          66.9203   94.7518   12.4373 N.1     1  UNL1       -0.1893
     23 C          62.7266   84.3351   13.6449 C.2     1  UNL1        0.2688
     24 O          62.0171   85.4097   12.8757 O.2     1  UNL1       -0.2681
     25 N          63.4328   84.6708   14.9250 N.am    1  UNL1       -0.2791
     26 H          63.8985   83.9655   15.4298 H       1  UNL1        0.1552
     27 C          62.7364   80.1041   12.1125 C.ar    1  UNL1        0.2449
     28 C          62.3606   80.3849   13.5372 C.ar    1  UNL1        0.1565
     29 N          62.3574   81.7952   14.0480 N.ar    1  UNL1       -0.2328
     30 C          62.7298   82.9247   13.1341 C.ar    1  UNL1        0.1541
     31 C          63.1056   82.6441   11.7093 C.ar    1  UNL1        0.1258
     32 N          63.1089   81.2337   11.1985 N.ar    1  UNL1       -0.2071
     33 C          62.7635   78.4310   10.1250 C.3     1  UNL1        0.2543
     34 O          62.7396   78.6938   11.6016 O.3     1  UNL1       -0.4551
@<TRIPOS>BOND
     1    33    34    1
     2    34    27    1
     3    27    28   ar
     4    28    29   ar
     5    29    30   ar
     6    30    23    1
     7    23    24    2
     8    23    25   am
     9    25     1    1
    10     1     2   ar
    11     2     3   ar
    12     3     4   ar
    13     4     5    1
    14     4     6   ar
    15     6     8    1
    16     8     9    1
    17     8    10    1
    18    10    11    1
    19    11    12   ar
    20    12    21    1
    21    21    22    3
    22    12    13   ar
    23    13    14   ar
    24    14    15   ar
    25    15    16    1
    26    16    17    1
    27    16    18    2
    28     6     7   ar
    29    30    31   ar
    30    31    32   ar
    31    32    27   ar
    32     7     1   ar
    33    18     8    1
    34    15    11   ar
    35    25    26    1
    36    17    19    1
    37    17    20    1
@<TRIPOS>MOLECULE
*****
 34 37 0 0 0
SMALL
GASTEIGER

@<TRIPOS>ATOM
      1 C          62.0812   87.3981   10.6539 C.ar    1  UNL1        0.0505
      2 C          61.2440   88.1319    9.6485 C.ar    1  UNL1        0.0170
      3 C          61.2091   89.6315    9.6531 C.ar    1  UNL1        0.0307
      4 C          62.0114   90.3973   10.6630 C.ar    1  UNL1        0.1401
      5 F          61.9764   91.8969   10.6675 F       1  UNL1       -0.2044
      6 C          62.8485   89.6636   11.6683 C.ar    1  UNL1        0.0522
      7 C          62.8835   88.1640   11.6638 C.ar    1  UNL1        0.0167
      8 C          63.6508   90.4295   12.6782 C.3     1  UNL1        0.2163
      9 C          64.3577   90.8381   11.4198 C.3     1  UNL1        0.0601
     10 C          64.6986   91.3373   13.2510 C.3     1  UNL1        0.1614
     11 N          64.7608   91.5706   14.7314 N.ar    1  UNL1       -0.2929
     12 C          65.6748   92.4056   15.5783 C.ar    1  UNL1        0.1503
     13 C          65.2542   92.2471   17.0094 C.ar    1  UNL1        0.1285
     14 N          64.0802   91.3142   17.0469 N.ar    1  UNL1       -0.2180
     15 C          63.7753   90.8961   15.6390 C.ar    1  UNL1        0.2279
     16 C          62.7275   89.9883   15.0662 C.2     1  UNL1        0.3476
     17 N          61.7420   89.3138   15.9738 N.pl3   1  UNL1       -0.2439
     18 N          62.6653   89.7550   13.5857 N.2     1  UNL1       -0.0653
     19 H          61.7828   89.4669   16.9454 H       1  UNL1        0.2885
     20 H          61.0543   88.7180   15.5978 H       1  UNL1        0.2885
     21 C          66.8102   93.2507   15.0814 C.1     1  UNL1        0.1196
     22 N          67.9455   94.0957   14.5846 N.1     1  UNL1       -0.1893
     23 C          62.6880   85.1581   11.8219 C.2     1  UNL1        0.2688
     24 O          63.2247   85.9172   12.9990 O.2     1  UNL1       -0.2681
     25 N          62.1162   85.8986   10.6494 N.am    1  UNL1       -0.2791
     26 H          61.7640   85.4003    9.8768 H       1  UNL1        0.1552
     27 C          62.7929   80.6594   11.8083 C.ar    1  UNL1        0.2449
     28 C          62.2756   81.3939   13.0095 C.ar    1  UNL1        0.1565
     29 N          62.2406   82.8935   13.0140 N.ar    1  UNL1       -0.2328
     30 C          62.7229   83.6585   11.8174 C.ar    1  UNL1        0.1541
     31 C          63.2403   82.9240   10.6162 C.ar    1  UNL1        0.1258
     32 N          63.2753   81.4245   10.6117 N.ar    1  UNL1       -0.2071
     33 C          62.7385   78.4114   10.5069 C.3     1  UNL1        0.2543
     34 O          62.8279   79.1598   11.8038 O.3     1  UNL1       -0.4551
@<TRIPOS>BOND
     1    33    34    1
     2    34    27    1
     3    27    28   ar
     4    28    29   ar
     5    29    30   ar
     6    30    23    1
     7    23    24    2
     8    23    25   am
     9    25     1    1
    10     1     2   ar
    11     2     3   ar
    12     3     4   ar
    13     4     5    1
    14     4     6   ar
    15     6     8    1
    16     8     9    1
    17     8    10    1
    18    10    11    1
    19    11    12   ar
    20    12    21    1
    21    21    22    3
    22    12    13   ar
    23    13    14   ar
    24    14    15   ar
    25    15    16    1
    26    16    17    1
    27    16    18    2
    28     6     7   ar
    29    30    31   ar
    30    31    32   ar
    31    32    27   ar
    32     7     1   ar
    33    18     8    1
    34    15    11   ar
    35    25    26    1
    36    17    19    1
    37    17    20    1
@<TRIPOS>MOLECULE
*****
 34 37 0 0 0
SMALL
GASTEIGER

@<TRIPOS>ATOM
      1 C          61.9630   87.3503   10.5031 C.ar    1  UNL1        0.0505
      2 C          61.1092   88.0357    9.4778 C.ar    1  UNL1        0.0170
      3 C          61.0483   89.5338    9.4326 C.ar    1  UNL1        0.0307
      4 C          61.8412   90.3465   10.4129 C.ar    1  UNL1        0.1401
      5 F          61.7803   91.8446   10.3677 F       1  UNL1       -0.2044
      6 C          62.6949   89.6612   11.4381 C.ar    1  UNL1        0.0522
      7 C          62.7559   88.1631   11.4833 C.ar    1  UNL1        0.0167
      8 C          63.4878   90.4740   12.4184 C.3     1  UNL1        0.2163
      9 C          62.6687   89.6490   13.3664 C.3     1  UNL1        0.0601
     10 C          63.9962   91.0002   13.7279 C.3     1  UNL1        0.1614
     11 N          65.0483   92.0691   13.7489 N.ar    1  UNL1       -0.2929
     12 C          65.7371   92.7773   14.8776 C.ar    1  UNL1        0.1503
     13 C          66.7066   93.7577   14.2868 C.ar    1  UNL1        0.1285
     14 N          66.6170   93.6554   12.7930 N.ar    1  UNL1       -0.2180
     15 C          65.5921   92.6118   12.4606 C.ar    1  UNL1        0.2279
     16 C          65.0837   92.0855   11.1511 C.2     1  UNL1        0.3476
     17 N          65.6274   92.6281    9.8628 N.pl3   1  UNL1       -0.2439
     18 N          64.0316   91.0166   11.1301 N.2     1  UNL1       -0.0653
     19 H          66.3180   93.3297    9.8766 H       1  UNL1        0.2885
     20 H          65.2938   92.2827    9.0034 H       1  UNL1        0.2885
     21 C          65.4984   92.5458   16.3403 C.1     1  UNL1        0.1196
     22 N          65.2596   92.3143   17.8030 N.1     1  UNL1       -0.1893
     23 C          62.6378   85.1619   11.7300 C.2     1  UNL1        0.2688
     24 O          63.1909   85.9696   12.8666 O.2     1  UNL1       -0.2681
     25 N          62.0239   85.8523   10.5483 N.am    1  UNL1       -0.2791
     26 H          61.6609   85.3222    9.8023 H       1  UNL1        0.1552
     27 C          62.8206   80.6677   11.8655 C.ar    1  UNL1        0.2449
     28 C          63.3394   81.4035   10.6658 C.ar    1  UNL1        0.1565
     29 N          63.2785   82.9017   10.6207 N.ar    1  UNL1       -0.2328
     30 C          62.6988   83.6638   11.7752 C.ar    1  UNL1        0.1541
     31 C          62.1799   82.9279   12.9749 C.ar    1  UNL1        0.1258
     32 N          62.2408   81.4299   13.0200 N.ar    1  UNL1       -0.2071
     33 C          62.6780   78.3725   10.6563 C.3     1  UNL1        0.2543
     34 O          62.8815   79.1695   11.9107 O.3     1  UNL1       -0.4551
@<TRIPOS>BOND
     1    33    34    1
     2    34    27    1
     3    27    28   ar
     4    28    29   ar
     5    29    30   ar
     6    30    23    1
     7    23    24    2
     8    23    25   am
     9    25     1    1
    10     1     2   ar
    11     2     3   ar
    12     3     4   ar
    13     4     5    1
    14     4     6   ar
    15     6     8    1
    16     8     9    1
    17     8    10    1
    18    10    11    1
    19    11    12   ar
    20    12    21    1
    21    21    22    3
    22    12    13   ar
    23    13    14   ar
    24    14    15   ar
    25    15    16    1
    26    16    17    1
    27    16    18    2
    28     6     7   ar
    29    30    31   ar
    30    31    32   ar
    31    32    27   ar
    32     7     1   ar
    33    18     8    1
    34    15    11   ar
    35    25    26    1
    36    17    19    1
    37    17    20    1
