@<TRIPOS>MOLECULE
*****
 37 41 0 0 0
SMALL
GASTEIGER

@<TRIPOS>ATOM
      1 C          61.9513   86.9674   11.2235 C.ar    1  UNL1        0.1881
      2 N          61.8472   88.2277   12.0301 N.ar    1  UNL1       -0.1268
      3 N          61.5402   89.3557   11.0902 N.ar    1  UNL1       -0.1284
      4 C          61.4546   88.7926    9.7026 C.ar    1  UNL1        0.1705
      5 N          61.7086   87.3165    9.7850 N.ar    1  UNL1       -0.2719
      6 C          61.7182   86.3579    8.6313 C.ar    1  UNL1        0.0773
      7 C          63.0119   85.7584    8.1651 C.ar    1  UNL1        0.0185
      8 C          63.0215   84.7997    7.0115 C.ar    1  UNL1        0.0015
      9 C          61.7376   84.4405    6.3240 C.ar    1  UNL1        0.0010
     10 C          60.4441   85.0400    6.7902 C.ar    1  UNL1        0.0129
     11 C          60.4344   85.9986    7.9439 C.ar    1  UNL1        0.0738
     12 CL         59.1408   86.5981    8.4100 Cl      1  UNL1       -0.0807
     13 C          62.8360   82.8604   12.8357 C.ar    1  UNL1        0.1248
     14 C          62.7541   83.0831   11.3547 C.ar    1  UNL1        0.0216
     15 C          62.4591   84.4521   10.8172 C.ar    1  UNL1        0.0236
     16 C          62.2462   85.5984   11.7609 C.ar    1  UNL1        0.1175
     17 N          62.3282   85.3757   13.2420 N.ar    1  UNL1       -0.2394
     18 C          62.6231   84.0067   13.7794 C.ar    1  UNL1        0.1172
     19 C          63.4259   80.1224   13.9106 C.3     1  UNL1        0.1816
     20 S          63.1310   81.4914   13.3732 S.O2    1  UNL1        0.0119
     21 O          62.8029   80.8958   12.0361 O.2     1  UNL1       -0.1685
     22 O          63.4590   82.0869   14.7102 O.2     1  UNL1       -0.1685
     23 C          61.1656   89.5690    8.4522 C.2     1  UNL1        0.0441
     24 C          59.8280   89.4453    7.7848 C.2     1  UNL1        0.0628
     25 C          59.5390   90.2218    6.5344 C.ar    1  UNL1        0.2502
     26 N          58.1783   90.5610    6.0019 N.ar    1  UNL1       -0.1069
     27 N          58.3584   91.3443    4.7353 N.ar    1  UNL1       -0.1069
     28 C          59.8302   91.4891    4.4851 C.ar    1  UNL1        0.2499
     29 O          60.5599   90.7953    5.5970 O.2     1  UNL1       -0.4157
     30 C          60.4616   92.2024    3.3264 C.ar    1  UNL1        0.0552
     31 C          61.9415   92.1049    3.1018 C.ar    1  UNL1        0.0054
     32 C          62.5728   92.8182    1.9431 C.ar    1  UNL1        0.0104
     33 C          61.7242   93.6290    1.0090 C.ar    1  UNL1        0.0685
     34 C          60.2443   93.7265    1.2335 C.ar    1  UNL1        0.0104
     35 C          59.6130   93.0132    2.3922 C.ar    1  UNL1        0.0054
     36 C          62.3556   94.3423   -0.1497 C.1     1  UNL1        0.1004
     37 N          62.9870   95.0556   -1.3084 N.1     1  UNL1       -0.1908
@<TRIPOS>BOND
     1    19    20    1
     2    20    21    2
     3    20    22    2
     4    20    13    1
     5    13    14   ar
     6    14    15   ar
     7    15    16   ar
     8    16     1    1
     9     1     2   ar
    10     2     3   ar
    11     3     4   ar
    12     4    23    1
    13    23    24    2
    14    24    25    1
    15    25    26   ar
    16    26    27   ar
    17    27    28   ar
    18    28    30    1
    19    30    31   ar
    20    31    32   ar
    21    32    33   ar
    22    33    36    1
    23    36    37    3
    24    33    34   ar
    25    34    35   ar
    26    28    29   ar
    27     4     5   ar
    28     5     6    1
    29     6     7   ar
    30     7     8   ar
    31     8     9   ar
    32     9    10   ar
    33    10    11   ar
    34    11    12    1
    35    16    17   ar
    36    17    18   ar
    37    18    13   ar
    38     5     1   ar
    39    11     6   ar
    40    29    25   ar
    41    35    30   ar
@<TRIPOS>MOLECULE
*****
 37 41 0 0 0
SMALL
GASTEIGER

@<TRIPOS>ATOM
      1 C          60.9017   86.2112    9.3925 C.ar    1  UNL1        0.1881
      2 N          60.2062   85.4153    8.3281 N.ar    1  UNL1       -0.1268
      3 N          59.6098   86.3780    7.3446 N.ar    1  UNL1       -0.1284
      4 C          59.9366   87.7690    7.8010 C.ar    1  UNL1        0.1705
      5 N          60.7350   87.6659    9.0667 N.ar    1  UNL1       -0.2719
      6 C          61.2724   88.8156    9.8663 C.ar    1  UNL1        0.0773
      7 C          62.6027   89.4148    9.5176 C.ar    1  UNL1        0.0185
      8 C          63.1401   90.5646   10.3171 C.ar    1  UNL1        0.0015
      9 C          62.3473   91.1152   11.4653 C.ar    1  UNL1        0.0010
     10 C          61.0171   90.5161   11.8139 C.ar    1  UNL1        0.0129
     11 C          60.4797   89.3663   11.0144 C.ar    1  UNL1        0.0738
     12 CL         59.1494   88.7672   11.3631 Cl      1  UNL1       -0.0807
     13 C          63.1016   84.5302   12.9400 C.ar    1  UNL1        0.1248
     14 C          63.2066   83.8562   11.6041 C.ar    1  UNL1        0.0216
     15 C          62.4733   84.4165   10.4216 C.ar    1  UNL1        0.0236
     16 C          61.6350   85.6509   10.5750 C.ar    1  UNL1        0.1175
     17 N          61.5300   86.3249   11.9109 N.ar    1  UNL1       -0.2394
     18 C          62.2633   85.7645   13.0934 C.ar    1  UNL1        0.1172
     19 C          64.5682   83.4095   15.3049 C.3     1  UNL1        0.1816
     20 S          63.8349   83.9698   14.1225 S.O2    1  UNL1        0.0119
     21 O          63.2291   85.0260   14.9986 O.2     1  UNL1       -0.1685
     22 O          64.4407   82.9137   13.2463 O.2     1  UNL1       -0.1685
     23 C          59.5354   89.0399    7.1127 C.2     1  UNL1        0.0441
     24 C          60.1896   89.4320    5.8211 C.2     1  UNL1        0.0628
     25 C          59.7885   90.7029    5.1328 C.ar    1  UNL1        0.2502
     26 N          58.7486   91.6733    5.6094 N.ar    1  UNL1       -0.1069
     27 N          58.6742   92.7968    4.6182 N.ar    1  UNL1       -0.1069
     28 C          59.6680   92.5207    3.5291 C.ar    1  UNL1        0.2499
     29 O          60.3567   91.2266    3.8471 O.2     1  UNL1       -0.4157
     30 C          59.9276   93.3866    2.3321 C.ar    1  UNL1        0.0552
     31 C          60.6553   94.6884    2.4918 C.ar    1  UNL1        0.0054
     32 C          60.9149   95.5543    1.2947 C.ar    1  UNL1        0.0104
     33 C          60.4467   95.1183   -0.0620 C.ar    1  UNL1        0.0685
     34 C          59.7190   93.8164   -0.2217 C.ar    1  UNL1        0.0104
     35 C          59.4594   92.9505    0.9753 C.ar    1  UNL1        0.0054
     36 C          60.7063   95.9842   -1.2590 C.1     1  UNL1        0.1004
     37 N          60.9659   96.8501   -2.4560 N.1     1  UNL1       -0.1908
@<TRIPOS>BOND
     1    19    20    1
     2    20    21    2
     3    20    22    2
     4    20    13    1
     5    13    14   ar
     6    14    15   ar
     7    15    16   ar
     8    16     1    1
     9     1     2   ar
    10     2     3   ar
    11     3     4   ar
    12     4    23    1
    13    23    24    2
    14    24    25    1
    15    25    26   ar
    16    26    27   ar
    17    27    28   ar
    18    28    30    1
    19    30    31   ar
    20    31    32   ar
    21    32    33   ar
    22    33    36    1
    23    36    37    3
    24    33    34   ar
    25    34    35   ar
    26    28    29   ar
    27     4     5   ar
    28     5     6    1
    29     6     7   ar
    30     7     8   ar
    31     8     9   ar
    32     9    10   ar
    33    10    11   ar
    34    11    12    1
    35    16    17   ar
    36    17    18   ar
    37    18    13   ar
    38     5     1   ar
    39    11     6   ar
    40    29    25   ar
    41    35    30   ar
@<TRIPOS>MOLECULE
*****
 37 41 0 0 0
SMALL
GASTEIGER

@<TRIPOS>ATOM
      1 C          60.4046   93.9714   -1.6000 C.ar    1  UNL1        0.1881
      2 N          58.9993   93.8421   -2.1082 N.ar    1  UNL1       -0.1268
      3 N          58.1713   93.2134   -1.0269 N.ar    1  UNL1       -0.1284
      4 C          59.0649   92.9540    0.1496 C.ar    1  UNL1        0.1705
      5 N          60.4452   93.4225   -0.2046 N.ar    1  UNL1       -0.2719
      6 C          61.6538   93.3541    0.6811 C.ar    1  UNL1        0.0773
      7 C          62.2776   92.0270    0.9976 C.ar    1  UNL1        0.0185
      8 C          63.4863   91.9586    1.8833 C.ar    1  UNL1        0.0015
      9 C          64.0712   93.2171    2.4525 C.ar    1  UNL1        0.0010
     10 C          63.4474   94.5441    2.1360 C.ar    1  UNL1        0.0129
     11 C          62.2388   94.6125    1.2503 C.ar    1  UNL1        0.0738
     12 CL         61.6151   95.9395    0.9339 Cl      1  UNL1       -0.0807
     13 C          63.8874   95.7018   -3.8640 C.ar    1  UNL1        0.1248
     14 C          63.8959   94.2558   -3.4655 C.ar    1  UNL1        0.0216
     15 C          62.7350   93.6790   -2.7108 C.ar    1  UNL1        0.0236
     16 C          61.5655   94.5482   -2.3547 C.ar    1  UNL1        0.1175
     17 N          61.5570   95.9942   -2.7532 N.ar    1  UNL1       -0.2394
     18 C          62.7180   96.5710   -3.5079 C.ar    1  UNL1        0.1172
     19 C          66.2092   96.8555   -5.3734 C.3     1  UNL1        0.1816
     20 S          65.0483   96.2786   -4.6187 S.O2    1  UNL1        0.0119
     21 O          64.3272   96.0380   -5.9118 O.2     1  UNL1       -0.1685
     22 O          65.7694   96.5193   -3.3256 O.2     1  UNL1       -0.1685
     23 C          58.6510   92.3350    1.4517 C.2     1  UNL1        0.0441
     24 C          59.5513   92.4313    2.6476 C.2     1  UNL1        0.0628
     25 C          59.1374   91.8122    3.9497 C.ar    1  UNL1        0.2502
     26 N          57.8293   92.0271    4.6517 N.ar    1  UNL1       -0.1069
     27 N          57.8423   91.2172    5.9142 N.ar    1  UNL1       -0.1069
     28 C          59.1585   90.5019    5.9925 C.ar    1  UNL1        0.2499
     29 O          59.9588   90.8696    4.7783 O.2     1  UNL1       -0.4157
     30 C          59.5972   89.5805    7.0919 C.ar    1  UNL1        0.0552
     31 C          59.3493   88.1056    6.9780 C.ar    1  UNL1        0.0054
     32 C          59.7881   87.1843    8.0775 C.ar    1  UNL1        0.0104
     33 C          60.4747   87.7380    9.2907 C.ar    1  UNL1        0.0685
     34 C          60.7226   89.2130    9.4045 C.ar    1  UNL1        0.0104
     35 C          60.2839   90.1343    8.3051 C.ar    1  UNL1        0.0054
     36 C          60.9135   86.8167   10.3901 C.1     1  UNL1        0.1004
     37 N          61.3522   85.8953   11.4895 N.1     1  UNL1       -0.1908
@<TRIPOS>BOND
     1    19    20    1
     2    20    21    2
     3    20    22    2
     4    20    13    1
     5    13    14   ar
     6    14    15   ar
     7    15    16   ar
     8    16     1    1
     9     1     2   ar
    10     2     3   ar
    11     3     4   ar
    12     4    23    1
    13    23    24    2
    14    24    25    1
    15    25    26   ar
    16    26    27   ar
    17    27    28   ar
    18    28    30    1
    19    30    31   ar
    20    31    32   ar
    21    32    33   ar
    22    33    36    1
    23    36    37    3
    24    33    34   ar
    25    34    35   ar
    26    28    29   ar
    27     4     5   ar
    28     5     6    1
    29     6     7   ar
    30     7     8   ar
    31     8     9   ar
    32     9    10   ar
    33    10    11   ar
    34    11    12    1
    35    16    17   ar
    36    17    18   ar
    37    18    13   ar
    38     5     1   ar
    39    11     6   ar
    40    29    25   ar
    41    35    30   ar
