@<TRIPOS>MOLECULE
*****
 27 30 0 0 0
SMALL
GASTEIGER

@<TRIPOS>ATOM
      1 C          64.5671   91.2988   13.6402 C.3     1  UNL1        0.0521
      2 C          63.8373   90.4266   12.6621 C.ar    1  UNL1        0.0606
      3 C          63.6433   88.9687   12.9568 C.ar    1  UNL1        0.0294
      4 C          62.9135   88.0964   11.9787 C.ar    1  UNL1        0.0532
      5 C          62.3778   88.6820   10.7059 C.ar    1  UNL1        0.0327
      6 C          62.5719   90.1399   10.4112 C.ar    1  UNL1        0.0996
      7 N          63.3016   91.0122   11.3893 N.ar    1  UNL1       -0.2481
      8 C          61.6481   87.8098    9.7278 C.ar    1  UNL1        0.0035
      9 C          60.1790   88.0071    9.4978 C.ar    1  UNL1        0.0001
     10 C          59.4493   87.1348    8.5197 C.ar    1  UNL1        0.0009
     11 C          60.1886   86.0654    7.7716 C.ar    1  UNL1        0.0114
     12 C          61.6577   85.8681    8.0016 C.ar    1  UNL1        0.0577
     13 CL         62.3970   84.7986    7.2535 Cl      1  UNL1       -0.0822
     14 C          62.3874   86.7403    8.9797 C.ar    1  UNL1        0.0115
     15 N          62.7195   86.6385   12.2734 N.am    1  UNL1       -0.2802
     16 C          63.3485   86.0293   13.4913 C.2     1  UNL1        0.2541
     17 O          64.1716   86.8780   14.4143 O.2     1  UNL1       -0.2696
     18 H          62.1792   86.0815   11.6675 H       1  UNL1        0.1552
     19 C          63.1545   84.5714   13.7860 C.ar    1  UNL1        0.1102
     20 C          62.8724   83.9740   15.1326 C.ar    1  UNL1        0.1281
     21 N          62.7520   82.4883   14.9646 N.ar    1  UNL1       -0.1619
     22 N          62.9597   82.1675   13.5141 N.ar    1  UNL1       -0.2105
     23 C          62.9544   80.8694   12.7625 C.ar    1  UNL1        0.1037
     24 C          63.1979   80.8587   11.2825 C.ar    1  UNL1        0.0414
     25 C          63.4466   82.1462   10.5540 C.ar    1  UNL1        0.1022
     26 N          63.4519   83.4442   11.3056 N.ar    1  UNL1       -0.2248
     27 C          63.2084   83.4549   12.7857 C.ar    1  UNL1        0.1697
@<TRIPOS>BOND
     1     1     2    1
     2     2     3   ar
     3     3     4   ar
     4     4    15    1
     5    15    16   am
     6    16    17    2
     7    16    19    1
     8    19    20   ar
     9    20    21   ar
    10    21    22   ar
    11    22    23   ar
    12    23    24   ar
    13    24    25   ar
    14    25    26   ar
    15    26    27   ar
    16     4     5   ar
    17     5     8    1
    18     8     9   ar
    19     9    10   ar
    20    10    11   ar
    21    11    12   ar
    22    12    13    1
    23    12    14   ar
    24     5     6   ar
    25     6     7   ar
    26     7     2   ar
    27    27    19   ar
    28    14     8   ar
    29    27    22   ar
    30    15    18    1
@<TRIPOS>MOLECULE
*****
 27 30 0 0 0
SMALL
GASTEIGER

@<TRIPOS>ATOM
      1 C          58.6875   89.4502    6.8986 C.3     1  UNL1        0.0521
      2 C          59.5345   88.5005    7.6927 C.ar    1  UNL1        0.0606
      3 C          60.6023   89.0298    8.6035 C.ar    1  UNL1        0.0294
      4 C          61.4493   88.0801    9.3976 C.ar    1  UNL1        0.0532
      5 C          61.2286   86.6011    9.2810 C.ar    1  UNL1        0.0327
      6 C          60.1608   86.0717    8.3702 C.ar    1  UNL1        0.0996
      7 N          59.3138   87.0214    7.5761 N.ar    1  UNL1       -0.2481
      8 C          62.0756   85.6514   10.0752 C.ar    1  UNL1        0.0035
      9 C          63.0929   84.7944    9.3818 C.ar    1  UNL1        0.0001
     10 C          63.9399   83.8447   10.1760 C.ar    1  UNL1        0.0009
     11 C          63.7696   83.7520   11.6634 C.ar    1  UNL1        0.0114
     12 C          62.7524   84.6091   12.3567 C.ar    1  UNL1        0.0577
     13 CL         62.5821   84.5164   13.8441 Cl      1  UNL1       -0.0822
     14 C          61.9054   85.5587   11.5626 C.ar    1  UNL1        0.0115
     15 N          62.5171   88.6095   10.3084 N.am    1  UNL1       -0.2802
     16 C          62.1429   89.2283   11.6227 C.2     1  UNL1        0.2541
     17 O          60.7010   89.3177   12.0260 O.2     1  UNL1       -0.2696
     18 H          63.4635   88.5508   10.0437 H       1  UNL1        0.1552
     19 C          63.2108   89.7577   12.5335 C.ar    1  UNL1        0.1102
     20 C          63.5505   89.2280   13.8951 C.ar    1  UNL1        0.1281
     21 N          64.6760   90.0527   14.4457 N.ar    1  UNL1       -0.1619
     22 N          65.0319   91.0920   13.4244 N.ar    1  UNL1       -0.2105
     23 C          66.0635   92.1809   13.4178 C.ar    1  UNL1        0.1037
     24 C          66.1895   93.0874   12.2295 C.ar    1  UNL1        0.0414
     25 C          65.2840   92.9051   11.0477 C.ar    1  UNL1        0.1022
     26 N          64.2523   91.8163   11.0542 N.ar    1  UNL1       -0.2248
     27 C          64.1263   90.9097   12.2426 C.ar    1  UNL1        0.1697
@<TRIPOS>BOND
     1     1     2    1
     2     2     3   ar
     3     3     4   ar
     4     4    15    1
     5    15    16   am
     6    16    17    2
     7    16    19    1
     8    19    20   ar
     9    20    21   ar
    10    21    22   ar
    11    22    23   ar
    12    23    24   ar
    13    24    25   ar
    14    25    26   ar
    15    26    27   ar
    16     4     5   ar
    17     5     8    1
    18     8     9   ar
    19     9    10   ar
    20    10    11   ar
    21    11    12   ar
    22    12    13    1
    23    12    14   ar
    24     5     6   ar
    25     6     7   ar
    26     7     2   ar
    27    27    19   ar
    28    14     8   ar
    29    27    22   ar
    30    15    18    1
@<TRIPOS>MOLECULE
*****
 27 30 0 0 0
SMALL
GASTEIGER

@<TRIPOS>ATOM
      1 C          65.7718   93.6703   12.2955 C.3     1  UNL1        0.0521
      2 C          65.3312   92.4614   13.0663 C.ar    1  UNL1        0.0606
      3 C          64.7055   91.3018   12.3495 C.ar    1  UNL1        0.0294
      4 C          64.2649   90.0928   13.1203 C.ar    1  UNL1        0.0532
      5 C          64.4498   90.0434   14.6080 C.ar    1  UNL1        0.0327
      6 C          65.0754   91.2030   15.3249 C.ar    1  UNL1        0.0996
      7 N          65.5161   92.4119   14.5540 N.ar    1  UNL1       -0.2481
      8 C          64.0091   88.8344   15.3789 C.ar    1  UNL1        0.0035
      9 C          63.2123   88.9979   16.6391 C.ar    1  UNL1        0.0001
     10 C          62.7716   87.7890   17.4100 C.ar    1  UNL1        0.0009
     11 C          63.1277   86.4165   16.9206 C.ar    1  UNL1        0.0114
     12 C          63.9246   86.2530   15.6603 C.ar    1  UNL1        0.0577
     13 CL         64.2807   84.8806   15.1709 Cl      1  UNL1       -0.0822
     14 C          64.3653   87.4620   14.8894 C.ar    1  UNL1        0.0115
     15 N          63.6392   88.9332   12.4034 N.am    1  UNL1       -0.2802
     16 C          62.4296   89.1478   11.5427 C.2     1  UNL1        0.2541
     17 O          61.8457   90.5219   11.3989 O.2     1  UNL1       -0.2696
     18 H          64.0225   88.0313   12.4979 H       1  UNL1        0.1552
     19 C          61.8039   87.9882   10.8258 C.ar    1  UNL1        0.1102
     20 C          61.9589   86.5406   11.1873 C.ar    1  UNL1        0.1281
     21 N          61.1642   85.7304   10.2064 N.ar    1  UNL1       -0.1619
     22 N          60.5182   86.6771    9.2388 N.ar    1  UNL1       -0.2105
     23 C          59.6210   86.4489    8.0586 C.ar    1  UNL1        0.1037
     24 C          59.1191   87.6161    7.2612 C.ar    1  UNL1        0.0414
     25 C          59.5145   89.0115    7.6440 C.ar    1  UNL1        0.1022
     26 N          60.4117   89.2397    8.8242 N.ar    1  UNL1       -0.2248
     27 C          60.9135   88.0725    9.6216 C.ar    1  UNL1        0.1697
@<TRIPOS>BOND
     1     1     2    1
     2     2     3   ar
     3     3     4   ar
     4     4    15    1
     5    15    16   am
     6    16    17    2
     7    16    19    1
     8    19    20   ar
     9    20    21   ar
    10    21    22   ar
    11    22    23   ar
    12    23    24   ar
    13    24    25   ar
    14    25    26   ar
    15    26    27   ar
    16     4     5   ar
    17     5     8    1
    18     8     9   ar
    19     9    10   ar
    20    10    11   ar
    21    11    12   ar
    22    12    13    1
    23    12    14   ar
    24     5     6   ar
    25     6     7   ar
    26     7     2   ar
    27    27    19   ar
    28    14     8   ar
    29    27    22   ar
    30    15    18    1
@<TRIPOS>MOLECULE
*****
 27 30 0 0 0
SMALL
GASTEIGER

@<TRIPOS>ATOM
      1 C          59.0371   88.5468    7.2490 C.3     1  UNL1        0.0521
      2 C          59.9688   88.7321    8.4099 C.ar    1  UNL1        0.0606
      3 C          60.5444   87.5358    9.1081 C.ar    1  UNL1        0.0294
      4 C          61.4760   87.7211   10.2689 C.ar    1  UNL1        0.0532
      5 C          61.8322   89.1028   10.7317 C.ar    1  UNL1        0.0327
      6 C          61.2566   90.2991   10.0335 C.ar    1  UNL1        0.0996
      7 N          60.3249   90.1138    8.8726 N.ar    1  UNL1       -0.2481
      8 C          62.7638   89.2881   11.8926 C.ar    1  UNL1        0.0035
      9 C          63.2829   90.6552   12.2268 C.ar    1  UNL1        0.0001
     10 C          64.2145   90.8405   13.3877 C.ar    1  UNL1        0.0009
     11 C          64.6272   89.6588   14.2143 C.ar    1  UNL1        0.0114
     12 C          64.1081   88.2917   13.8801 C.ar    1  UNL1        0.0577
     13 CL         64.5208   87.1100   14.7067 Cl      1  UNL1       -0.0822
     14 C          63.1765   88.1064   12.7192 C.ar    1  UNL1        0.0115
     15 N          62.0516   86.5248   10.9671 N.am    1  UNL1       -0.2802
     16 C          62.7036   85.4334   10.1709 C.2     1  UNL1        0.2541
     17 O          62.7800   85.5385    8.6766 O.2     1  UNL1       -0.2696
     18 H          62.0015   86.4558   11.9479 H       1  UNL1        0.1552
     19 C          63.2792   84.2370   10.8691 C.ar    1  UNL1        0.1102
     20 C          64.1001   83.1550   10.2324 C.ar    1  UNL1        0.1281
     21 N          64.4632   82.1619   11.2964 N.ar    1  UNL1       -0.1619
     22 N          63.8667   82.6302   12.5906 N.ar    1  UNL1       -0.2105
     23 C          63.8953   82.0546   13.9754 C.ar    1  UNL1        0.1037
     24 C          63.1922   82.7614   15.0961 C.ar    1  UNL1        0.0414
     25 C          62.4605   84.0439   14.8320 C.ar    1  UNL1        0.1022
     26 N          62.4319   84.6196   13.4472 N.ar    1  UNL1       -0.2248
     27 C          63.1350   83.9128   12.3265 C.ar    1  UNL1        0.1697
@<TRIPOS>BOND
     1     1     2    1
     2     2     3   ar
     3     3     4   ar
     4     4    15    1
     5    15    16   am
     6    16    17    2
     7    16    19    1
     8    19    20   ar
     9    20    21   ar
    10    21    22   ar
    11    22    23   ar
    12    23    24   ar
    13    24    25   ar
    14    25    26   ar
    15    26    27   ar
    16     4     5   ar
    17     5     8    1
    18     8     9   ar
    19     9    10   ar
    20    10    11   ar
    21    11    12   ar
    22    12    13    1
    23    12    14   ar
    24     5     6   ar
    25     6     7   ar
    26     7     2   ar
    27    27    19   ar
    28    14     8   ar
    29    27    22   ar
    30    15    18    1
@<TRIPOS>MOLECULE
*****
 27 30 0 0 0
SMALL
GASTEIGER

@<TRIPOS>ATOM
      1 C          58.6512   89.4457    6.5239 C.3     1  UNL1        0.0521
      2 C          59.4489   88.5717    7.4458 C.ar    1  UNL1        0.0606
      3 C          60.5202   89.1713    8.3076 C.ar    1  UNL1        0.0294
      4 C          61.3179   88.2974    9.2295 C.ar    1  UNL1        0.0532
      5 C          61.0444   86.8238    9.2896 C.ar    1  UNL1        0.0327
      6 C          59.9731   86.2241    8.4277 C.ar    1  UNL1        0.0996
      7 N          59.1754   87.0981    7.5059 N.ar    1  UNL1       -0.2481
      8 C          61.8420   85.9498   10.2115 C.ar    1  UNL1        0.0035
      9 C          61.7296   86.1267   11.6967 C.ar    1  UNL1        0.0001
     10 C          62.5273   85.2527   12.6186 C.ar    1  UNL1        0.0009
     11 C          63.4374   84.2019   12.0552 C.ar    1  UNL1        0.0114
     12 C          63.5498   84.0250   10.5699 C.ar    1  UNL1        0.0577
     13 CL         64.4599   82.9741   10.0065 Cl      1  UNL1       -0.0822
     14 C          62.7521   84.8989    9.6481 C.ar    1  UNL1        0.0115
     15 N          62.3892   88.8970   10.0914 N.am    1  UNL1       -0.2802
     16 C          62.0934   90.1132   10.9182 C.2     1  UNL1        0.2541
     17 O          60.7265   90.7296   10.8830 O.2     1  UNL1       -0.2696
     18 H          63.2864   88.4924   10.1144 H       1  UNL1        0.1552
     19 C          63.1647   90.7128   11.7800 C.ar    1  UNL1        0.1102
     20 C          64.2878   91.5887   11.3092 C.ar    1  UNL1        0.1281
     21 N          65.1181   91.9590   12.5023 N.ar    1  UNL1       -0.1619
     22 N          64.5083   91.3120   13.7104 N.ar    1  UNL1       -0.2105
     23 C          64.8964   91.3248   15.1592 C.ar    1  UNL1        0.1037
     24 C          64.0771   90.5673   16.1617 C.ar    1  UNL1        0.0414
     25 C          62.8698   89.7971   15.7154 C.ar    1  UNL1        0.1022
     26 N          62.4818   89.7844   14.2665 N.ar    1  UNL1       -0.2248
     27 C          63.3010   90.5419   13.2640 C.ar    1  UNL1        0.1697
@<TRIPOS>BOND
     1     1     2    1
     2     2     3   ar
     3     3     4   ar
     4     4    15    1
     5    15    16   am
     6    16    17    2
     7    16    19    1
     8    19    20   ar
     9    20    21   ar
    10    21    22   ar
    11    22    23   ar
    12    23    24   ar
    13    24    25   ar
    14    25    26   ar
    15    26    27   ar
    16     4     5   ar
    17     5     8    1
    18     8     9   ar
    19     9    10   ar
    20    10    11   ar
    21    11    12   ar
    22    12    13    1
    23    12    14   ar
    24     5     6   ar
    25     6     7   ar
    26     7     2   ar
    27    27    19   ar
    28    14     8   ar
    29    27    22   ar
    30    15    18    1
@<TRIPOS>MOLECULE
*****
 27 30 0 0 0
SMALL
GASTEIGER

@<TRIPOS>ATOM
      1 C          58.9383   87.3181    7.6744 C.3     1  UNL1        0.0521
      2 C          59.9161   87.9054    8.6486 C.ar    1  UNL1        0.0606
      3 C          60.4587   87.0643    9.7659 C.ar    1  UNL1        0.0294
      4 C          61.4364   87.6516   10.7401 C.ar    1  UNL1        0.0532
      5 C          61.8716   89.0799   10.5971 C.ar    1  UNL1        0.0327
      6 C          61.3289   89.9210    9.4799 C.ar    1  UNL1        0.0996
      7 N          60.3512   89.3337    8.5057 N.ar    1  UNL1       -0.2481
      8 C          62.8493   89.6672   11.5714 C.ar    1  UNL1        0.0035
      9 C          63.1445   88.9560   12.8586 C.ar    1  UNL1        0.0001
     10 C          64.1223   89.5433   13.8328 C.ar    1  UNL1        0.0009
     11 C          64.8048   90.8418   13.5198 C.ar    1  UNL1        0.0114
     12 C          64.5096   91.5531   12.2326 C.ar    1  UNL1        0.0577
     13 CL         65.1921   92.8516   11.9195 Cl      1  UNL1       -0.0822
     14 C          63.5319   90.9658   11.2583 C.ar    1  UNL1        0.0115
     15 N          61.9791   86.8106   11.8573 N.am    1  UNL1       -0.2802
     16 C          62.6534   85.5053   11.5542 C.2     1  UNL1        0.2541
     17 O          62.7850   85.0413   10.1339 O.2     1  UNL1       -0.2696
     18 H          61.8927   87.1152   12.7895 H       1  UNL1        0.1552
     19 C          63.1960   84.6642   12.6714 C.ar    1  UNL1        0.1102
     20 C          63.9330   85.1683   13.8767 C.ar    1  UNL1        0.1281
     21 N          64.2894   83.9870   14.7296 N.ar    1  UNL1       -0.1619
     22 N          63.7726   82.7529   14.0515 N.ar    1  UNL1       -0.2105
     23 C          63.8301   81.3020   14.4279 C.ar    1  UNL1        0.1037
     24 C          63.2119   80.2698   13.5323 C.ar    1  UNL1        0.0414
     25 C          62.5361   80.6883   12.2603 C.ar    1  UNL1        0.1022
     26 N          62.4786   82.1392   11.8838 N.ar    1  UNL1       -0.2248
     27 C          63.0969   83.1714   12.7794 C.ar    1  UNL1        0.1697
@<TRIPOS>BOND
     1     1     2    1
     2     2     3   ar
     3     3     4   ar
     4     4    15    1
     5    15    16   am
     6    16    17    2
     7    16    19    1
     8    19    20   ar
     9    20    21   ar
    10    21    22   ar
    11    22    23   ar
    12    23    24   ar
    13    24    25   ar
    14    25    26   ar
    15    26    27   ar
    16     4     5   ar
    17     5     8    1
    18     8     9   ar
    19     9    10   ar
    20    10    11   ar
    21    11    12   ar
    22    12    13    1
    23    12    14   ar
    24     5     6   ar
    25     6     7   ar
    26     7     2   ar
    27    27    19   ar
    28    14     8   ar
    29    27    22   ar
    30    15    18    1
@<TRIPOS>MOLECULE
*****
 27 30 0 0 0
SMALL
GASTEIGER

@<TRIPOS>ATOM
      1 C          64.4135   90.3982   14.4789 C.3     1  UNL1        0.0521
      2 C          64.1230   88.9556   14.1886 C.ar    1  UNL1        0.0606
      3 C          63.5094   88.5632   12.8773 C.ar    1  UNL1        0.0294
      4 C          63.2189   87.1205   12.5870 C.ar    1  UNL1        0.0532
      5 C          63.5420   86.0701   13.6079 C.ar    1  UNL1        0.0327
      6 C          64.1556   86.4626   14.9192 C.ar    1  UNL1        0.0996
      7 N          64.4461   87.9052   15.2095 N.ar    1  UNL1       -0.2481
      8 C          63.2515   84.6275   13.3176 C.ar    1  UNL1        0.0035
      9 C          62.5523   83.7826   14.3409 C.ar    1  UNL1        0.0001
     10 C          62.2618   82.3399   14.0507 C.ar    1  UNL1        0.0009
     11 C          62.6706   81.7421   12.7371 C.ar    1  UNL1        0.0114
     12 C          63.3699   82.5870   11.7138 C.ar    1  UNL1        0.0577
     13 CL         63.7786   81.9892   10.4002 Cl      1  UNL1       -0.0822
     14 C          63.6603   84.0297   12.0040 C.ar    1  UNL1        0.0115
     15 N          62.6052   86.7281   11.2757 N.am    1  UNL1       -0.2802
     16 C          61.2428   87.2338   10.9040 C.2     1  UNL1        0.2541
     17 O          60.4942   88.1319   11.8435 O.2     1  UNL1       -0.2696
     18 H          63.0967   86.1386   10.6590 H       1  UNL1        0.1552
     19 C          60.6292   86.8414    9.5927 C.ar    1  UNL1        0.1102
     20 C          59.2614   87.2236    9.1098 C.ar    1  UNL1        0.1281
     21 N          59.0625   86.6163    7.7527 N.ar    1  UNL1       -0.1619
     22 N          60.3074   85.8588    7.3969 N.ar    1  UNL1       -0.2105
     23 C          60.6843   85.0604    6.1843 C.ar    1  UNL1        0.1037
     24 C          62.0295   84.4011    6.1089 C.ar    1  UNL1        0.0414
     25 C          62.9978   84.5402    7.2461 C.ar    1  UNL1        0.1022
     26 N          62.6208   85.3387    8.4586 N.ar    1  UNL1       -0.2248
     27 C          61.2756   85.9980    8.5340 C.ar    1  UNL1        0.1697
@<TRIPOS>BOND
     1     1     2    1
     2     2     3   ar
     3     3     4   ar
     4     4    15    1
     5    15    16   am
     6    16    17    2
     7    16    19    1
     8    19    20   ar
     9    20    21   ar
    10    21    22   ar
    11    22    23   ar
    12    23    24   ar
    13    24    25   ar
    14    25    26   ar
    15    26    27   ar
    16     4     5   ar
    17     5     8    1
    18     8     9   ar
    19     9    10   ar
    20    10    11   ar
    21    11    12   ar
    22    12    13    1
    23    12    14   ar
    24     5     6   ar
    25     6     7   ar
    26     7     2   ar
    27    27    19   ar
    28    14     8   ar
    29    27    22   ar
    30    15    18    1
@<TRIPOS>MOLECULE
*****
 27 30 0 0 0
SMALL
GASTEIGER

@<TRIPOS>ATOM
      1 C          62.9247   86.6397   18.4789 C.3     1  UNL1        0.0521
      2 C          63.1206   87.4463   17.2295 C.ar    1  UNL1        0.0606
      3 C          63.3428   86.7544   15.9172 C.ar    1  UNL1        0.0294
      4 C          63.5388   87.5610   14.6678 C.ar    1  UNL1        0.0532
      5 C          63.5126   89.0594   14.7306 C.ar    1  UNL1        0.0327
      6 C          63.2904   89.7513   16.0428 C.ar    1  UNL1        0.0996
      7 N          63.0944   88.9447   17.2922 N.ar    1  UNL1       -0.2481
      8 C          63.7085   89.8660   13.4812 C.ar    1  UNL1        0.0035
      9 C          62.9413   89.5227   12.2388 C.ar    1  UNL1        0.0001
     10 C          63.1372   90.3293   10.9894 C.ar    1  UNL1        0.0009
     11 C          64.1005   91.4791   10.9824 C.ar    1  UNL1        0.0114
     12 C          64.8677   91.8224   12.2247 C.ar    1  UNL1        0.0577
     13 CL         65.8310   92.9723   12.2177 Cl      1  UNL1       -0.0822
     14 C          64.6718   91.0158   13.4741 C.ar    1  UNL1        0.0115
     15 N          63.7609   86.8691   13.3556 N.am    1  UNL1       -0.2802
     16 C          63.1593   85.5173   13.1091 C.2     1  UNL1        0.2541
     17 O          62.3356   84.8574   14.1749 O.2     1  UNL1       -0.2696
     18 H          64.3016   87.3023   12.6561 H       1  UNL1        0.1552
     19 C          63.3815   84.8254   11.7969 C.ar    1  UNL1        0.1102
     20 C          64.2302   83.6089   11.5742 C.ar    1  UNL1        0.1281
     21 N          64.1672   83.2602   10.1166 N.ar    1  UNL1       -0.1619
     22 N          63.2794   84.2613    9.4385 N.ar    1  UNL1       -0.2105
     23 C          62.8505   84.4170    8.0096 C.ar    1  UNL1        0.1037
     24 C          61.9360   85.5400    7.6193 C.ar    1  UNL1        0.0414
     25 C          61.4504   86.5074    8.6577 C.ar    1  UNL1        0.1022
     26 N          61.8793   86.3517   10.0866 N.ar    1  UNL1       -0.2248
     27 C          62.7938   85.2286   10.4770 C.ar    1  UNL1        0.1697
@<TRIPOS>BOND
     1     1     2    1
     2     2     3   ar
     3     3     4   ar
     4     4    15    1
     5    15    16   am
     6    16    17    2
     7    16    19    1
     8    19    20   ar
     9    20    21   ar
    10    21    22   ar
    11    22    23   ar
    12    23    24   ar
    13    24    25   ar
    14    25    26   ar
    15    26    27   ar
    16     4     5   ar
    17     5     8    1
    18     8     9   ar
    19     9    10   ar
    20    10    11   ar
    21    11    12   ar
    22    12    13    1
    23    12    14   ar
    24     5     6   ar
    25     6     7   ar
    26     7     2   ar
    27    27    19   ar
    28    14     8   ar
    29    27    22   ar
    30    15    18    1
