@<TRIPOS>MOLECULE
*****
 38 40 0 0 0
SMALL
GASTEIGER

@<TRIPOS>ATOM
      1 C          63.1543   83.2167   12.0989 C.ar    1  UNL1        0.1432
      2 C          63.7924   83.9499   13.2413 C.ar    1  UNL1        0.0691
      3 C          63.4571   83.5745   14.6543 C.ar    1  UNL1        0.1368
      4 N          62.4836   82.4659   14.9249 N.ar    1  UNL1       -0.2088
      5 C          61.8454   81.7327   13.7825 C.ar    1  UNL1        0.2012
      6 N          62.1807   82.1081   12.3695 N.ar    1  UNL1       -0.2085
      7 N          62.1788   85.8177   10.9660 N.am    1  UNL1       -0.2663
      8 C          63.0019   84.8926   10.1194 C.2     1  UNL1        0.3126
      9 O          63.3373   85.2680    8.7064 O.2     1  UNL1       -0.2519
     10 N          63.4897   83.5921   10.6859 N.am    1  UNL1       -0.2261
     11 C          64.3128   82.6670    9.8393 C.3     1  UNL1        0.1231
     12 H          61.9587   85.5713   11.8934 H       1  UNL1        0.1565
     13 C          60.2139   88.4216    8.7057 C.ar    1  UNL1        0.1535
     14 C          60.7155   89.7191    9.2667 C.ar    1  UNL1        0.0756
     15 C          61.7049   89.7162   10.3941 C.ar    1  UNL1        0.1535
     16 C          62.1927   88.4158   10.9605 C.ar    1  UNL1        0.1060
     17 CL         63.1821   88.4128   12.0879 Cl      1  UNL1       -0.0777
     18 C          61.6911   87.1182   10.3996 C.ar    1  UNL1        0.0788
     19 C          60.7016   87.1211    9.2722 C.ar    1  UNL1        0.1060
     20 CL         60.2000   85.8235    8.7112 Cl      1  UNL1       -0.0777
     21 C          59.2984   89.4831    6.5183 C.3     1  UNL1        0.2525
     22 O          59.2244   88.4245    7.5783 O.3     1  UNL1       -0.4704
     23 O          62.2066   91.0138   10.9551 O.3     1  UNL1       -0.4704
     24 C          63.5134   91.5794   10.4836 C.3     1  UNL1        0.2525
     25 N          64.0952   84.3077   15.7967 N.pl3   1  UNL1       -0.2978
     26 H          64.6412   83.8172   16.4529 H       1  UNL1        0.1536
     27 C          63.9015   85.7884   15.9394 C.ar    1  UNL1        0.0493
     28 C          64.5165   86.7247   14.9419 C.ar    1  UNL1        0.0143
     29 C          64.3228   88.2053   15.0846 C.ar    1  UNL1       -0.0030
     30 C          63.5143   88.7495   16.2247 C.ar    1  UNL1       -0.0221
     31 C          62.8993   87.8131   17.2223 C.ar    1  UNL1       -0.0030
     32 C          63.0930   86.3325   17.0796 C.ar    1  UNL1        0.0143
     33 C          63.3206   90.2301   16.3674 C.3     1  UNL1        0.0278
     34 C          64.0949   91.1751   15.4970 C.3     1  UNL1        0.0220
     35 C          65.1351   92.0705   16.1020 C.3     1  UNL1        0.0725
     36 N          66.2430   92.6154   15.2501 N.3     1  UNL1       -0.2703
     37 C          67.4973   93.1314   15.8909 C.3     1  UNL1        0.0897
     38 C          66.0965   92.6444   13.7576 C.3     1  UNL1        0.0897
@<TRIPOS>BOND
     1    21    22    1
     2    22    13    1
     3    13    14   ar
     4    14    15   ar
     5    15    23    1
     6    23    24    1
     7    15    16   ar
     8    16    17    1
     9    16    18   ar
    10    18     7    1
    11     7     8   am
    12     8     9    2
    13     8    10   am
    14    10    11    1
    15    10     1    1
    16     1     2   ar
    17     2     3   ar
    18     3    25    1
    19    25    27    1
    20    27    28   ar
    21    28    29   ar
    22    29    30   ar
    23    30    33    1
    24    33    34    1
    25    34    35    1
    26    35    36    1
    27    36    37    1
    28    36    38    1
    29    30    31   ar
    30    31    32   ar
    31     3     4   ar
    32     4     5   ar
    33     5     6   ar
    34    18    19   ar
    35    19    20    1
    36    19    13   ar
    37     6     1   ar
    38    32    27   ar
    39     7    12    1
    40    25    26    1
@<TRIPOS>MOLECULE
*****
 38 40 0 0 0
SMALL
GASTEIGER

@<TRIPOS>ATOM
      1 C          63.1705   83.2800   12.1107 C.ar    1  UNL1        0.1432
      2 C          63.7884   84.0315   13.2524 C.ar    1  UNL1        0.0691
      3 C          63.4528   83.6574   14.6657 C.ar    1  UNL1        0.1368
      4 N          62.4993   82.5319   14.9373 N.ar    1  UNL1       -0.2088
      5 C          61.8813   81.7803   13.7957 C.ar    1  UNL1        0.2012
      6 N          62.2169   82.1544   12.3824 N.ar    1  UNL1       -0.2085
      7 N          62.1731   85.8679   10.9668 N.am    1  UNL1       -0.2663
      8 C          63.0073   84.9481   10.1255 C.2     1  UNL1        0.3126
      9 O          63.3429   85.3222    8.7122 O.2     1  UNL1       -0.2519
     10 N          63.5060   83.6541   10.6974 N.am    1  UNL1       -0.2261
     11 C          64.3403   82.7343    9.8561 C.3     1  UNL1        0.1231
     12 H          61.9528   85.6223   11.8944 H       1  UNL1        0.1565
     13 C          61.6671   89.7598   10.3779 C.ar    1  UNL1        0.1535
     14 C          60.6770   89.7496    9.2512 C.ar    1  UNL1        0.0756
     15 C          60.1855   88.4456    8.6964 C.ar    1  UNL1        0.1535
     16 C          60.6842   87.1516    9.2682 C.ar    1  UNL1        0.1060
     17 CL         60.1927   85.8476    8.7134 Cl      1  UNL1       -0.0777
     18 C          61.6743   87.1618   10.3949 C.ar    1  UNL1        0.0788
     19 C          62.1658   88.4659   10.9497 C.ar    1  UNL1        0.1060
     20 CL         63.1560   88.4760   12.0765 Cl      1  UNL1       -0.0777
     21 C          63.5654   91.5102   10.6651 C.3     1  UNL1        0.2525
     22 O          62.1586   91.0639   10.9327 O.3     1  UNL1       -0.4704
     23 O          59.1953   88.4354    7.5696 O.3     1  UNL1       -0.4704
     24 C          59.2708   89.4796    6.4954 C.3     1  UNL1        0.2525
     25 N          64.0707   84.4089   15.8073 N.pl3   1  UNL1       -0.2978
     26 H          64.5726   83.9239   16.5017 H       1  UNL1        0.1536
     27 C          63.9240   85.8994   15.8911 C.ar    1  UNL1        0.0493
     28 C          64.5880   86.7769   14.8717 C.ar    1  UNL1        0.0143
     29 C          64.4413   88.2673   14.9554 C.ar    1  UNL1       -0.0030
     30 C          63.6306   88.8803   16.0585 C.ar    1  UNL1       -0.0221
     31 C          62.9666   88.0028   17.0779 C.ar    1  UNL1       -0.0030
     32 C          63.1133   86.5124   16.9942 C.ar    1  UNL1        0.0143
     33 C          63.4838   90.3708   16.1423 C.3     1  UNL1        0.0278
     34 C          64.3124   91.2567   15.2599 C.3     1  UNL1        0.0220
     35 C          65.4067   92.0938   15.8529 C.3     1  UNL1        0.0725
     36 N          66.4105   92.7590   14.9586 N.3     1  UNL1       -0.2703
     37 C          67.6630   93.3437   15.5415 C.3     1  UNL1        0.0897
     38 C          66.1620   92.8395   13.4816 C.3     1  UNL1        0.0897
@<TRIPOS>BOND
     1    21    22    1
     2    22    13    1
     3    13    14   ar
     4    14    15   ar
     5    15    23    1
     6    23    24    1
     7    15    16   ar
     8    16    17    1
     9    16    18   ar
    10    18     7    1
    11     7     8   am
    12     8     9    2
    13     8    10   am
    14    10    11    1
    15    10     1    1
    16     1     2   ar
    17     2     3   ar
    18     3    25    1
    19    25    27    1
    20    27    28   ar
    21    28    29   ar
    22    29    30   ar
    23    30    33    1
    24    33    34    1
    25    34    35    1
    26    35    36    1
    27    36    37    1
    28    36    38    1
    29    30    31   ar
    30    31    32   ar
    31     3     4   ar
    32     4     5   ar
    33     5     6   ar
    34    18    19   ar
    35    19    20    1
    36    19    13   ar
    37     6     1   ar
    38    32    27   ar
    39     7    12    1
    40    25    26    1
@<TRIPOS>MOLECULE
*****
 38 40 0 0 0
SMALL
GASTEIGER

@<TRIPOS>ATOM
      1 C          61.4161   86.2384    8.4815 C.ar    1  UNL1        0.1432
      2 C          61.5557   87.6207    9.0469 C.ar    1  UNL1        0.0691
      3 C          60.3861   88.5597    9.0296 C.ar    1  UNL1        0.1368
      4 N          59.0770   88.1165    8.4468 N.ar    1  UNL1       -0.2088
      5 C          58.9374   86.7341    7.8813 C.ar    1  UNL1        0.2012
      6 N          60.1069   85.7951    7.8986 N.ar    1  UNL1       -0.2085
      7 N          62.3638   85.0706   11.0773 N.am    1  UNL1       -0.2663
      8 C          63.0596   84.7155    9.7968 C.2     1  UNL1        0.3126
      9 O          64.2291   83.7764    9.8141 O.2     1  UNL1       -0.2519
     10 N          62.5857   85.2994    8.4988 N.am    1  UNL1       -0.2261
     11 C          63.2814   84.9442    7.2183 C.3     1  UNL1        0.1231
     12 H          61.5962   85.6869   11.0659 H       1  UNL1        0.1565
     13 C          63.2462   82.4210   13.8971 C.ar    1  UNL1        0.1535
     14 C          63.7853   83.3189   14.9710 C.ar    1  UNL1        0.0756
     15 C          63.8506   84.8006   14.7469 C.ar    1  UNL1        0.1535
     16 C          63.3768   85.3845   13.4491 C.ar    1  UNL1        0.1060
     17 CL         63.4421   86.8663   13.2251 Cl      1  UNL1       -0.0777
     18 C          62.8377   84.4867   12.3752 C.ar    1  UNL1        0.0788
     19 C          62.7724   83.0050   12.5992 C.ar    1  UNL1        0.1060
     20 CL         62.2332   82.1071   11.5253 Cl      1  UNL1       -0.0777
     21 C          61.8687   80.2211   14.0102 C.3     1  UNL1        0.2525
     22 O          63.1809   80.9393   14.1211 O.3     1  UNL1       -0.4704
     23 O          64.3898   85.6985   15.8209 O.3     1  UNL1       -0.4704
     24 C          63.4586   86.3073   16.8269 C.3     1  UNL1        0.2525
     25 N          60.5256   89.9420    9.5951 N.pl3   1  UNL1       -0.2978
     26 H          59.8892   90.6467    9.3351 H       1  UNL1        0.1536
     27 C          61.6348   90.2505   10.5566 C.ar    1  UNL1        0.0493
     28 C          61.5369   89.8003   11.9841 C.ar    1  UNL1        0.0143
     29 C          62.6460   90.1088   12.9456 C.ar    1  UNL1       -0.0030
     30 C          63.8530   90.8676   12.4797 C.ar    1  UNL1       -0.0221
     31 C          63.9510   91.3179   11.0523 C.ar    1  UNL1       -0.0030
     32 C          62.8419   91.0094   10.0907 C.ar    1  UNL1        0.0143
     33 C          64.9622   91.1762   13.4413 C.3     1  UNL1        0.0278
     34 C          65.7701   92.4293   13.2772 C.3     1  UNL1        0.0220
     35 C          67.0729   92.3900   12.5348 C.3     1  UNL1        0.0725
     36 N          67.1701   92.9786   11.1586 N.3     1  UNL1       -0.2703
     37 C          66.5233   94.2988   10.8602 C.3     1  UNL1        0.0897
     38 C          67.9139   92.2471   10.0808 C.3     1  UNL1        0.0897
@<TRIPOS>BOND
     1    21    22    1
     2    22    13    1
     3    13    14   ar
     4    14    15   ar
     5    15    23    1
     6    23    24    1
     7    15    16   ar
     8    16    17    1
     9    16    18   ar
    10    18     7    1
    11     7     8   am
    12     8     9    2
    13     8    10   am
    14    10    11    1
    15    10     1    1
    16     1     2   ar
    17     2     3   ar
    18     3    25    1
    19    25    27    1
    20    27    28   ar
    21    28    29   ar
    22    29    30   ar
    23    30    33    1
    24    33    34    1
    25    34    35    1
    26    35    36    1
    27    36    37    1
    28    36    38    1
    29    30    31   ar
    30    31    32   ar
    31     3     4   ar
    32     4     5   ar
    33     5     6   ar
    34    18    19   ar
    35    19    20    1
    36    19    13   ar
    37     6     1   ar
    38    32    27   ar
    39     7    12    1
    40    25    26    1
@<TRIPOS>MOLECULE
*****
 38 40 0 0 0
SMALL
GASTEIGER

@<TRIPOS>ATOM
      1 C          61.4195   86.2436    8.4736 C.ar    1  UNL1        0.1432
      2 C          61.5507   87.6220    9.0504 C.ar    1  UNL1        0.0691
      3 C          60.3793   88.5588    9.0286 C.ar    1  UNL1        0.1368
      4 N          59.0769   88.1172    8.4300 N.ar    1  UNL1       -0.2088
      5 C          58.9456   86.7387    7.8531 C.ar    1  UNL1        0.2012
      6 N          60.1170   85.8019    7.8749 N.ar    1  UNL1       -0.2085
      7 N          62.3617   85.0804   11.0734 N.am    1  UNL1       -0.2663
      8 C          63.0619   84.7253    9.7954 C.2     1  UNL1        0.3126
      9 O          64.2333   83.7885    9.8172 O.2     1  UNL1       -0.2519
     10 N          62.5908   85.3069    8.4954 N.am    1  UNL1       -0.2261
     11 C          63.2911   84.9517    7.2173 C.3     1  UNL1        0.1231
     12 H          61.5929   85.6953   11.0591 H       1  UNL1        0.1565
     13 C          63.8408   84.8171   14.7467 C.ar    1  UNL1        0.1535
     14 C          63.7750   83.3358   14.9733 C.ar    1  UNL1        0.0756
     15 C          63.2381   82.4360   13.8999 C.ar    1  UNL1        0.1535
     16 C          62.7670   83.0175   12.6000 C.ar    1  UNL1        0.1060
     17 CL         62.2301   82.1178   11.5266 Cl      1  UNL1       -0.0777
     18 C          62.8328   84.4988   12.3734 C.ar    1  UNL1        0.0788
     19 C          63.3698   85.3986   13.4468 C.ar    1  UNL1        0.1060
     20 CL         63.4356   86.8800   13.2202 Cl      1  UNL1       -0.0777
     21 C          63.4465   86.3158   16.8320 C.3     1  UNL1        0.2525
     22 O          64.3778   85.7169   15.8201 O.3     1  UNL1       -0.4704
     23 O          63.1723   80.9546   14.1265 O.3     1  UNL1       -0.4704
     24 C          61.8497   80.2481   14.0882 C.3     1  UNL1        0.2525
     25 N          60.5105   89.9372    9.6054 N.pl3   1  UNL1       -0.2978
     26 H          59.8647   90.6378    9.3580 H       1  UNL1        0.1536
     27 C          61.6257   90.2481   10.5592 C.ar    1  UNL1        0.0493
     28 C          62.8326   91.0005   10.0823 C.ar    1  UNL1        0.0143
     29 C          63.9478   91.3114   11.0361 C.ar    1  UNL1       -0.0030
     30 C          63.8561   90.8700   12.4667 C.ar    1  UNL1       -0.0221
     31 C          62.6492   90.1176   12.9436 C.ar    1  UNL1       -0.0030
     32 C          61.5340   89.8067   11.9898 C.ar    1  UNL1        0.0143
     33 C          64.9713   91.1809   13.4205 C.3     1  UNL1        0.0278
     34 C          65.7801   92.4321   13.2464 C.3     1  UNL1        0.0220
     35 C          67.0859   92.3846   12.5098 C.3     1  UNL1        0.0725
     36 N          67.1950   92.9807   11.1376 N.3     1  UNL1       -0.2703
     37 C          67.9524   92.2573   10.0638 C.3     1  UNL1        0.0897
     38 C          66.5468   94.3001   10.8394 C.3     1  UNL1        0.0897
@<TRIPOS>BOND
     1    21    22    1
     2    22    13    1
     3    13    14   ar
     4    14    15   ar
     5    15    23    1
     6    23    24    1
     7    15    16   ar
     8    16    17    1
     9    16    18   ar
    10    18     7    1
    11     7     8   am
    12     8     9    2
    13     8    10   am
    14    10    11    1
    15    10     1    1
    16     1     2   ar
    17     2     3   ar
    18     3    25    1
    19    25    27    1
    20    27    28   ar
    21    28    29   ar
    22    29    30   ar
    23    30    33    1
    24    33    34    1
    25    34    35    1
    26    35    36    1
    27    36    37    1
    28    36    38    1
    29    30    31   ar
    30    31    32   ar
    31     3     4   ar
    32     4     5   ar
    33     5     6   ar
    34    18    19   ar
    35    19    20    1
    36    19    13   ar
    37     6     1   ar
    38    32    27   ar
    39     7    12    1
    40    25    26    1
@<TRIPOS>MOLECULE
*****
 38 40 0 0 0
SMALL
GASTEIGER

@<TRIPOS>ATOM
      1 C          63.5832   89.6151   13.7577 C.ar    1  UNL1        0.1432
      2 C          64.2664   88.2852   13.8786 C.ar    1  UNL1        0.0691
      3 C          64.1961   87.5202   15.1669 C.ar    1  UNL1        0.1368
      4 N          63.4425   88.0850   16.3344 N.ar    1  UNL1       -0.2088
      5 C          62.7592   89.4150   16.2136 C.ar    1  UNL1        0.2012
      6 N          62.8296   90.1800   14.9252 N.ar    1  UNL1       -0.2085
      7 N          62.2257   88.5490   11.3040 N.am    1  UNL1       -0.2663
      8 C          62.9748   89.8470   11.2425 C.2     1  UNL1        0.3126
      9 O          63.0452   90.6120    9.9542 O.2     1  UNL1       -0.2519
     10 N          63.6536   90.3801   12.4694 N.am    1  UNL1       -0.2261
     11 C          64.4027   91.6782   12.4079 C.3     1  UNL1        0.1231
     12 H          62.1795   88.0469   12.1496 H       1  UNL1        0.1565
     13 C          59.8131   88.2979    8.1629 C.ar    1  UNL1        0.1535
     14 C          60.1894   86.9498    7.6235 C.ar    1  UNL1        0.0756
     15 C          61.2445   86.1347    8.3109 C.ar    1  UNL1        0.1535
     16 C          61.9232   86.6678    9.5377 C.ar    1  UNL1        0.1060
     17 CL         62.9783   85.8527   10.2251 Cl      1  UNL1       -0.0777
     18 C          61.5469   88.0159   10.0772 C.ar    1  UNL1        0.0788
     19 C          60.4919   88.8309    9.3898 C.ar    1  UNL1        0.1060
     20 CL         60.1156   90.1791    9.9292 Cl      1  UNL1       -0.0777
     21 C          59.0888   89.8609    6.2181 C.3     1  UNL1        0.2525
     22 O          58.7580   89.1130    7.4755 O.3     1  UNL1       -0.4704
     23 O          61.6207   84.7866    7.7715 O.3     1  UNL1       -0.4704
     24 C          61.7083   84.5694    6.2899 C.3     1  UNL1        0.2525
     25 N          64.8793   86.1903   15.2878 N.pl3   1  UNL1       -0.2978
     26 H          65.8337   86.1471   15.5254 H       1  UNL1        0.1536
     27 C          64.1083   84.9264   15.0465 C.ar    1  UNL1        0.0493
     28 C          64.6800   83.8559   14.1649 C.ar    1  UNL1        0.0143
     29 C          63.9091   82.5920   13.9236 C.ar    1  UNL1       -0.0030
     30 C          62.5666   82.3985   14.5640 C.ar    1  UNL1       -0.0221
     31 C          61.9949   83.4690   15.4457 C.ar    1  UNL1       -0.0030
     32 C          62.7658   84.7329   15.6869 C.ar    1  UNL1        0.0143
     33 C          61.7957   81.1346   14.3228 C.3     1  UNL1        0.0278
     34 C          61.6247   80.6154   12.9259 C.3     1  UNL1        0.0220
     35 C          62.8001   80.0455   12.1885 C.3     1  UNL1        0.0725
     36 N          63.0585   80.4451   10.7660 N.3     1  UNL1       -0.2703
     37 C          63.5497   81.8274   10.4526 C.3     1  UNL1        0.0897
     38 C          62.8258   79.4624    9.6569 C.3     1  UNL1        0.0897
@<TRIPOS>BOND
     1    21    22    1
     2    22    13    1
     3    13    14   ar
     4    14    15   ar
     5    15    23    1
     6    23    24    1
     7    15    16   ar
     8    16    17    1
     9    16    18   ar
    10    18     7    1
    11     7     8   am
    12     8     9    2
    13     8    10   am
    14    10    11    1
    15    10     1    1
    16     1     2   ar
    17     2     3   ar
    18     3    25    1
    19    25    27    1
    20    27    28   ar
    21    28    29   ar
    22    29    30   ar
    23    30    33    1
    24    33    34    1
    25    34    35    1
    26    35    36    1
    27    36    37    1
    28    36    38    1
    29    30    31   ar
    30    31    32   ar
    31     3     4   ar
    32     4     5   ar
    33     5     6   ar
    34    18    19   ar
    35    19    20    1
    36    19    13   ar
    37     6     1   ar
    38    32    27   ar
    39     7    12    1
    40    25    26    1
@<TRIPOS>MOLECULE
*****
 38 40 0 0 0
SMALL
GASTEIGER

@<TRIPOS>ATOM
      1 C          63.5655   89.5973   13.8936 C.ar    1  UNL1        0.1432
      2 C          64.2341   88.2653   14.0628 C.ar    1  UNL1        0.0691
      3 C          64.1066   87.5214   15.3591 C.ar    1  UNL1        0.1368
      4 N          63.3104   88.1095   16.4861 N.ar    1  UNL1       -0.2088
      5 C          62.6416   89.4415   16.3169 C.ar    1  UNL1        0.2012
      6 N          62.7692   90.1854   15.0206 N.ar    1  UNL1       -0.2085
      7 N          62.2330   88.5425   11.4213 N.am    1  UNL1       -0.2663
      8 C          63.0267   89.8138   11.3612 C.2     1  UNL1        0.3126
      9 O          63.1543   90.5577   10.0649 O.2     1  UNL1       -0.2519
     10 N          63.6930   90.3412   12.5973 N.am    1  UNL1       -0.2261
     11 C          64.4867   91.6126   12.5371 C.3     1  UNL1        0.1231
     12 H          62.1493   88.0542   12.2721 H       1  UNL1        0.1565
     13 C          61.2849   86.1434    8.4054 C.ar    1  UNL1        0.1535
     14 C          60.2344   86.9600    7.7131 C.ar    1  UNL1        0.0756
     15 C          59.8500   88.3042    8.2568 C.ar    1  UNL1        0.1535
     16 C          60.5162   88.8316    9.4928 C.ar    1  UNL1        0.1060
     17 CL         60.1319   90.1758   10.0365 Cl      1  UNL1       -0.0777
     18 C          61.5668   88.0150   10.1852 C.ar    1  UNL1        0.0788
     19 C          61.9511   86.6709    9.6415 C.ar    1  UNL1        0.1060
     20 CL         63.0017   85.8542   10.3339 Cl      1  UNL1       -0.0777
     21 C          61.6024   84.5402    6.3858 C.3     1  UNL1        0.2525
     22 O          61.6692   84.7993    7.8617 O.3     1  UNL1       -0.4704
     23 O          58.7994   89.1208    7.5643 O.3     1  UNL1       -0.4704
     24 C          59.1147   89.8035    6.2664 C.3     1  UNL1        0.2525
     25 N          64.7753   86.1895   15.5284 N.pl3   1  UNL1       -0.2978
     26 H          65.6761   86.1374   15.9220 H       1  UNL1        0.1536
     27 C          64.0714   84.9367   15.0978 C.ar    1  UNL1        0.0493
     28 C          62.7642   84.5567   15.7277 C.ar    1  UNL1        0.0143
     29 C          62.0603   83.3041   15.2972 C.ar    1  UNL1       -0.0030
     30 C          62.6636   82.4314   14.2368 C.ar    1  UNL1       -0.0221
     31 C          63.9708   82.8115   13.6069 C.ar    1  UNL1       -0.0030
     32 C          64.6747   84.0641   14.0374 C.ar    1  UNL1        0.0143
     33 C          61.9597   81.1787   13.8063 C.3     1  UNL1        0.0278
     34 C          62.7523   80.0054   13.3114 C.3     1  UNL1        0.0220
     35 C          62.3846   79.3445   12.0160 C.3     1  UNL1        0.0725
     36 N          62.8522   79.9295   10.7164 N.3     1  UNL1       -0.2703
     37 C          62.8283   79.0982    9.4680 C.3     1  UNL1        0.0897
     38 C          63.3437   81.3457   10.6650 C.3     1  UNL1        0.0897
@<TRIPOS>BOND
     1    21    22    1
     2    22    13    1
     3    13    14   ar
     4    14    15   ar
     5    15    23    1
     6    23    24    1
     7    15    16   ar
     8    16    17    1
     9    16    18   ar
    10    18     7    1
    11     7     8   am
    12     8     9    2
    13     8    10   am
    14    10    11    1
    15    10     1    1
    16     1     2   ar
    17     2     3   ar
    18     3    25    1
    19    25    27    1
    20    27    28   ar
    21    28    29   ar
    22    29    30   ar
    23    30    33    1
    24    33    34    1
    25    34    35    1
    26    35    36    1
    27    36    37    1
    28    36    38    1
    29    30    31   ar
    30    31    32   ar
    31     3     4   ar
    32     4     5   ar
    33     5     6   ar
    34    18    19   ar
    35    19    20    1
    36    19    13   ar
    37     6     1   ar
    38    32    27   ar
    39     7    12    1
    40    25    26    1
@<TRIPOS>MOLECULE
*****
 38 40 0 0 0
SMALL
GASTEIGER

@<TRIPOS>ATOM
      1 C          63.2827   88.1905   12.6639 C.ar    1  UNL1        0.1432
      2 C          63.6434   89.6456   12.6147 C.ar    1  UNL1        0.0691
      3 C          64.4665   90.2518   13.7124 C.ar    1  UNL1        0.1368
      4 N          64.9290   89.4029   14.8593 N.ar    1  UNL1       -0.2088
      5 C          64.5683   87.9477   14.9086 C.ar    1  UNL1        0.2012
      6 N          63.7452   87.3415   13.8109 N.ar    1  UNL1       -0.2085
      7 N          62.9361   85.2141   12.5178 N.am    1  UNL1       -0.2663
      8 C          62.2863   86.0960   11.4932 C.2     1  UNL1        0.3126
      9 O          61.4631   85.4898   10.3955 O.2     1  UNL1       -0.2519
     10 N          62.4596   87.5843   11.5662 N.am    1  UNL1       -0.2261
     11 C          61.8097   88.4662   10.5416 C.3     1  UNL1        0.1231
     12 H          63.4764   85.6120   13.2383 H       1  UNL1        0.1565
     13 C          63.1138   81.4788   11.1889 C.ar    1  UNL1        0.1535
     14 C          62.4163   80.7496   12.2987 C.ar    1  UNL1        0.0756
     15 C          61.8921   81.5086   13.4816 C.ar    1  UNL1        0.1535
     16 C          62.0654   82.9967   13.5546 C.ar    1  UNL1        0.1060
     17 CL         61.5412   83.7556   14.7375 Cl      1  UNL1       -0.0777
     18 C          62.7628   83.7259   12.4448 C.ar    1  UNL1        0.0788
     19 C          63.2870   82.9670   11.2619 C.ar    1  UNL1        0.1060
     20 CL         63.9845   83.6963   10.1521 Cl      1  UNL1       -0.0777
     21 C          63.0540   79.3841    9.6531 C.3     1  UNL1        0.2525
     22 O          63.6380   80.7199   10.0060 O.3     1  UNL1       -0.4704
     23 O          61.1946   80.7793   14.5914 O.3     1  UNL1       -0.4704
     24 C          59.8220   80.2155   14.3720 C.3     1  UNL1        0.2525
     25 N          64.8272   91.7070   13.6632 N.pl3   1  UNL1       -0.2978
     26 H          64.5716   92.3028   14.4041 H       1  UNL1        0.1536
     27 C          65.5772   92.2544   12.4851 C.ar    1  UNL1        0.0493
     28 C          64.8283   92.7504   11.2839 C.ar    1  UNL1        0.0143
     29 C          65.5782   93.2978   10.1058 C.ar    1  UNL1       -0.0030
     30 C          67.0771   93.3491   10.1290 C.ar    1  UNL1       -0.0221
     31 C          67.8261   92.8530   11.3302 C.ar    1  UNL1       -0.0030
     32 C          67.0761   92.3057   12.5083 C.ar    1  UNL1        0.0143
     33 C          67.8272   93.8965    8.9509 C.3     1  UNL1        0.0278
     34 C          67.4617   95.2373    8.3862 C.3     1  UNL1        0.0220
     35 C          67.3392   96.4252    9.2938 C.3     1  UNL1        0.0725
     36 N          66.0588   96.6742   10.0345 N.3     1  UNL1       -0.2703
     37 C          64.7771   96.8559    9.2767 C.3     1  UNL1        0.0897
     38 C          66.0602   96.7417   11.5330 C.3     1  UNL1        0.0897
@<TRIPOS>BOND
     1    21    22    1
     2    22    13    1
     3    13    14   ar
     4    14    15   ar
     5    15    23    1
     6    23    24    1
     7    15    16   ar
     8    16    17    1
     9    16    18   ar
    10    18     7    1
    11     7     8   am
    12     8     9    2
    13     8    10   am
    14    10    11    1
    15    10     1    1
    16     1     2   ar
    17     2     3   ar
    18     3    25    1
    19    25    27    1
    20    27    28   ar
    21    28    29   ar
    22    29    30   ar
    23    30    33    1
    24    33    34    1
    25    34    35    1
    26    35    36    1
    27    36    37    1
    28    36    38    1
    29    30    31   ar
    30    31    32   ar
    31     3     4   ar
    32     4     5   ar
    33     5     6   ar
    34    18    19   ar
    35    19    20    1
    36    19    13   ar
    37     6     1   ar
    38    32    27   ar
    39     7    12    1
    40    25    26    1
@<TRIPOS>MOLECULE
*****
 38 40 0 0 0
SMALL
GASTEIGER

@<TRIPOS>ATOM
      1 C          61.5031   86.2563    8.6477 C.ar    1  UNL1        0.1432
      2 C          61.5812   87.6525    9.1904 C.ar    1  UNL1        0.0691
      3 C          60.3946   88.5644    9.0882 C.ar    1  UNL1        0.1368
      4 N          59.1300   88.0802    8.4432 N.ar    1  UNL1       -0.2088
      5 C          59.0518   86.6840    7.9004 C.ar    1  UNL1        0.2012
      6 N          60.2383   85.7720    8.0026 N.ar    1  UNL1       -0.2085
      7 N          62.2786   85.0960   11.3033 N.am    1  UNL1       -0.2663
      8 C          63.0774   84.7642   10.0778 C.2     1  UNL1        0.3126
      9 O          64.2640   83.8523   10.1801 O.2     1  UNL1       -0.2519
     10 N          62.6896   85.3444    8.7499 N.am    1  UNL1       -0.2261
     11 C          63.4884   85.0126    7.5245 C.3     1  UNL1        0.1231
     12 H          61.4999   85.6945   11.2361 H       1  UNL1        0.1565
     13 C          62.8463   82.4747   14.2285 C.ar    1  UNL1        0.1535
     14 C          63.4419   83.3554   15.2866 C.ar    1  UNL1        0.0756
     15 C          63.6498   84.8162   15.0170 C.ar    1  UNL1        0.1535
     16 C          63.2620   85.3964   13.6892 C.ar    1  UNL1        0.1060
     17 CL         63.4699   86.8573   13.4196 Cl      1  UNL1       -0.0777
     18 C          62.6664   84.5158   12.6311 C.ar    1  UNL1        0.0788
     19 C          62.4585   83.0549   12.9008 C.ar    1  UNL1        0.1060
     20 CL         61.8629   82.1743   11.8426 Cl      1  UNL1       -0.0777
     21 C          63.3183   79.9886   13.6400 C.3     1  UNL1        0.2525
     22 O          62.6384   81.0139   14.4982 O.3     1  UNL1       -0.4704
     23 O          64.2454   85.6969   16.0752 O.3     1  UNL1       -0.4704
     24 C          63.3741   86.2652   17.1559 C.3     1  UNL1        0.2525
     25 N          60.4728   89.9606    9.6309 N.pl3   1  UNL1       -0.2978
     26 H          59.7426   90.5977    9.4574 H       1  UNL1        0.1536
     27 C          61.6635   90.3860   10.4380 C.ar    1  UNL1        0.0493
     28 C          61.7553   90.0193   11.8896 C.ar    1  UNL1        0.0143
     29 C          62.9459   90.4446   12.6967 C.ar    1  UNL1       -0.0030
     30 C          64.0446   91.2367   12.0523 C.ar    1  UNL1       -0.0221
     31 C          63.9527   91.6035   10.6007 C.ar    1  UNL1       -0.0030
     32 C          62.7621   91.1781    9.7936 C.ar    1  UNL1        0.0143
     33 C          65.2353   91.6622   12.8594 C.3     1  UNL1        0.0278
     34 C          65.6414   90.8743   14.0695 C.3     1  UNL1        0.0220
     35 C          64.6463   89.9848   14.7540 C.3     1  UNL1        0.0725
     36 N          63.9283   90.4665   15.9797 N.3     1  UNL1       -0.2703
     37 C          62.9522   89.5675   16.6791 C.3     1  UNL1        0.0897
     38 C          64.1865   91.8471   16.5062 C.3     1  UNL1        0.0897
@<TRIPOS>BOND
     1    21    22    1
     2    22    13    1
     3    13    14   ar
     4    14    15   ar
     5    15    23    1
     6    23    24    1
     7    15    16   ar
     8    16    17    1
     9    16    18   ar
    10    18     7    1
    11     7     8   am
    12     8     9    2
    13     8    10   am
    14    10    11    1
    15    10     1    1
    16     1     2   ar
    17     2     3   ar
    18     3    25    1
    19    25    27    1
    20    27    28   ar
    21    28    29   ar
    22    29    30   ar
    23    30    33    1
    24    33    34    1
    25    34    35    1
    26    35    36    1
    27    36    37    1
    28    36    38    1
    29    30    31   ar
    30    31    32   ar
    31     3     4   ar
    32     4     5   ar
    33     5     6   ar
    34    18    19   ar
    35    19    20    1
    36    19    13   ar
    37     6     1   ar
    38    32    27   ar
    39     7    12    1
    40    25    26    1
