@<TRIPOS>MOLECULE
*****
 57 63 0 0 0
SMALL
GASTEIGER

@<TRIPOS>ATOM
      1 N          63.0056   83.9840    9.3924 N.3     1  UNL1       -0.1862
      2 C          62.3750   84.0694    8.0341 C.3     1  UNL1        0.1775
      3 C          61.5022   85.2382    7.6846 C.2     1  UNL1        0.2452
      4 O          60.8715   85.3235    6.3262 O.2     1  UNL1       -0.2732
      5 N          61.2600   86.3216    8.6933 N.am    1  UNL1       -0.2541
      6 C          60.3872   87.4903    8.3438 C.3     1  UNL1        0.1577
      7 C          60.1450   88.5737    9.3525 C.2     1  UNL1        0.2445
      8 O          59.2722   89.7425    9.0029 O.2     1  UNL1       -0.2731
      9 N          60.7756   88.4884   10.7109 N.am    1  UNL1       -0.2705
     10 C          61.6484   87.3196   11.0604 C.3     1  UNL1        0.1359
     11 C          61.8906   86.2362   10.0516 C.3     1  UNL1        0.1908
     12 N          62.7634   85.0674   10.4012 N.am    1  UNL1       -0.1863
     13 C          63.3941   84.9821   11.7595 C.2     1  UNL1        0.3191
     14 O          63.1519   86.0654   12.7683 O.2     1  UNL1       -0.2512
     15 N          64.2669   83.8133   12.1091 N.am    1  UNL1       -0.2836
     16 H          64.4258   83.1022   11.4470 H       1  UNL1        0.1513
     17 C          63.8784   82.8153    9.7420 C.3     1  UNL1        0.1188
     18 C          62.8204   81.2502   11.5255 C.2     1  UNL1       -0.0034
     19 C          63.2585   81.5007   10.1130 C.2     1  UNL1       -0.0071
     20 C          59.7565   87.5757    6.9855 C.3     1  UNL1        0.0556
     21 C          59.5212   88.9142    6.3506 C.ar    1  UNL1       -0.0198
     22 C          58.1286   89.4626    6.2509 C.ar    1  UNL1       -0.0011
     23 C          57.8933   90.8011    5.6161 C.ar    1  UNL1        0.0363
     24 C          59.0506   91.5912    5.0809 C.ar    1  UNL1        0.1337
     25 O          58.8152   92.9297    4.4461 O.3     1  UNL1       -0.5055
     26 C          60.4432   91.0428    5.1806 C.ar    1  UNL1        0.0363
     27 C          60.6786   89.7043    5.8155 C.ar    1  UNL1       -0.0011
     28 H          57.9453   93.2722    4.3838 H       1  UNL1        0.2922
     29 C          60.5334   89.5717   11.7196 C.3     1  UNL1        0.1217
     30 C          61.6357   89.9952   12.6447 C.ar    1  UNL1        0.0135
     31 C          61.5847   89.6160   14.0951 C.ar    1  UNL1       -0.0012
     32 C          62.6868   90.0394   15.0202 C.ar    1  UNL1       -0.0002
     33 C          63.8400   90.8421   14.4950 C.ar    1  UNL1        0.0016
     34 C          63.8910   91.2213   13.0446 C.ar    1  UNL1        0.0214
     35 C          64.8928   92.0010   12.2456 C.ar    1  UNL1        0.0722
     36 C          64.4098   92.0595   10.8268 C.ar    1  UNL1        0.0805
     37 N          63.1095   91.3159   10.7488 N.ar    1  UNL1       -0.3241
     38 C          62.2761   91.1241    9.5165 C.3     1  UNL1        0.1305
     39 C          62.7888   90.7978   12.1195 C.ar    1  UNL1        0.0577
     40 C          66.1560   92.6146   12.7731 C.2     1  UNL1        0.2510
     41 O          66.8809   93.6500   11.9653 O.2     1  UNL1       -0.2698
     42 N          66.6941   92.1929   14.1082 N.am    1  UNL1       -0.2791
     43 H          66.2182   91.5133   14.6383 H       1  UNL1        0.1552
     44 C          67.9571   92.8064   14.6356 C.ar    1  UNL1        0.0701
     45 C          67.8930   93.8347   15.7258 C.ar    1  UNL1        0.0202
     46 C          69.1560   94.4482   16.2533 C.ar    1  UNL1        0.0510
     47 C          70.4832   94.0335   15.6906 C.ar    1  UNL1        0.2224
     48 F          71.7462   94.6470   16.2180 F       1  UNL1       -0.1832
     49 N          70.5473   93.0052   14.6004 N.ar    1  UNL1       -0.2151
     50 C          69.2843   92.3916   14.0729 C.ar    1  UNL1        0.1159
     51 C          64.8975   83.7279   13.4674 C.3     1  UNL1        0.1177
     52 C          64.2956   84.4728   14.6219 C.ar    1  UNL1       -0.0025
     53 C          64.8542   85.8040   15.0287 C.ar    1  UNL1       -0.0026
     54 C          64.2523   86.5489   16.1832 C.ar    1  UNL1       -0.0003
     55 C          63.0918   85.9624   16.9309 C.ar    1  UNL1       -0.0000
     56 C          62.5331   84.6311   16.5241 C.ar    1  UNL1       -0.0003
     57 C          63.1350   83.8862   15.3696 C.ar    1  UNL1       -0.0026
@<TRIPOS>BOND
     1    18    19    2
     2    19    17    1
     3    17     1    1
     4     1     2    1
     5     2     3    1
     6     3     4    2
     7     3     5   am
     8     5     6    1
     9     6    20    1
    10    20    21    1
    11    21    22   ar
    12    22    23   ar
    13    23    24   ar
    14    24    25    1
    15    24    26   ar
    16    26    27   ar
    17     6     7    1
    18     7     8    2
    19     7     9   am
    20     9    29    1
    21    29    30    1
    22    30    31   ar
    23    31    32   ar
    24    32    33   ar
    25    33    34   ar
    26    34    35   ar
    27    35    40    1
    28    40    41    2
    29    40    42   am
    30    42    44    1
    31    44    45   ar
    32    45    46   ar
    33    46    47   ar
    34    47    48    1
    35    47    49   ar
    36    49    50   ar
    37    35    36   ar
    38    36    37   ar
    39    37    38    1
    40    37    39   ar
    41     9    10    1
    42    11    10    1
    43    11    12    1
    44    12    13   am
    45    13    14    2
    46    13    15   am
    47    15    51    1
    48    51    52    1
    49    52    53   ar
    50    53    54   ar
    51    54    55   ar
    52    55    56   ar
    53    56    57   ar
    54    12     1    1
    55    57    52   ar
    56    11     5    1
    57    27    21   ar
    58    39    30   ar
    59    39    34   ar
    60    50    44   ar
    61    25    28    1
    62    42    43    1
    63    15    16    1
