@<TRIPOS>MOLECULE
*****
 41 45 0 0 0
SMALL
GASTEIGER

@<TRIPOS>ATOM
      1 C          62.4425   89.3268   12.4025 C.3     1  UNL1        0.0792
      2 C          63.5686   87.7085   14.0946 C.ar    1  UNL1        0.1351
      3 C          64.0718   86.3395   14.4451 C.ar    1  UNL1        0.0366
      4 C          63.9521   85.2200   13.4541 C.ar    1  UNL1        0.0030
      5 C          64.4553   83.8511   13.8045 C.ar    1  UNL1        0.0006
      6 C          64.3357   82.7315   12.8135 C.ar    1  UNL1        0.0067
      7 C          63.7128   82.9808   11.4719 C.ar    1  UNL1        0.0346
      8 BR         63.5931   81.8613   10.4808 Br      1  UNL1       -0.0490
      9 C          63.2096   84.3498   11.1214 C.ar    1  UNL1        0.0067
     10 C          63.3292   85.4694   12.1124 C.ar    1  UNL1        0.0004
     11 C          62.8260   86.8382   11.7620 C.ar    1  UNL1       -0.0009
     12 C          62.9457   87.9578   12.7530 C.ar    1  UNL1        0.0182
     13 C          63.2399   88.6263   16.5029 C.3     1  UNL1        0.2525
     14 O          63.6882   88.8281   15.0857 O.3     1  UNL1       -0.4717
     15 C          63.3888   90.3587   11.8645 C.ar    1  UNL1        0.0245
     16 C          63.6293   90.4581   10.3872 C.ar    1  UNL1        0.0200
     17 C          64.5757   91.4900    9.8492 C.ar    1  UNL1        0.1019
     18 N          65.2816   92.4226   10.7885 N.ar    1  UNL1       -0.2076
     19 C          65.0411   92.3231   12.2657 C.ar    1  UNL1        0.2598
     20 C          64.0947   91.2912   12.8037 C.ar    1  UNL1        0.1879
     21 O          65.7470   93.2556   13.2049 O.3     1  UNL1       -0.4541
     22 C          66.4212   94.4861   12.6743 C.3     1  UNL1        0.2543
     23 O          63.8542   91.1917   14.2809 O.3     1  UNL1       -0.4670
     24 C          64.9488   91.5435   15.2444 C.3     1  UNL1        0.2527
     25 C          60.9929   89.6637   12.5900 C.3     1  UNL1        0.1159
     26 O          61.2753   90.0948   13.9986 O.3     1  UNL1       -0.3820
     27 H          61.8981   89.4740   14.4080 H       1  UNL1        0.2107
     28 C          60.7105   89.2327   11.1813 C.ar    1  UNL1        0.0026
     29 C          60.4060   90.2582   10.1299 C.ar    1  UNL1        0.0011
     30 C          60.1236   89.8271    8.7212 C.ar    1  UNL1        0.0372
     31 C          60.1457   88.3705    8.3639 C.ar    1  UNL1        0.1454
     32 O          59.9087   87.6508    7.0693 O.2     1  UNL1       -0.4504
     33 C          60.0667   86.1805    7.3206 C.ar    1  UNL1        0.1796
     34 C          60.4013   85.9914    8.7705 C.ar    1  UNL1        0.0437
     35 C          60.4502   87.3449    9.4153 C.ar    1  UNL1        0.0375
     36 C          60.7326   87.7759   10.8240 C.ar    1  UNL1        0.0011
     37 C          59.5433   90.0007   12.7775 C.3     1  UNL1        0.0491
     38 C          58.4911   88.9692   12.4964 C.3     1  UNL1        0.0750
     39 N          57.7627   88.3124   13.6313 N.3     1  UNL1       -0.2702
     40 C          58.4704   88.0568   14.9289 C.3     1  UNL1        0.0897
     41 C          56.3265   87.9113   13.4687 C.3     1  UNL1        0.0897
@<TRIPOS>BOND
     1    13    14    1
     2    14     2    1
     3     2     3   ar
     4     3     4   ar
     5     4     5   ar
     6     5     6   ar
     7     6     7   ar
     8     7     8    1
     9     7     9   ar
    10     9    10   ar
    11    10    11   ar
    12    11    12   ar
    13     1    12    1
    14     1    15    1
    15    15    16   ar
    16    16    17   ar
    17    17    18   ar
    18    18    19   ar
    19    19    21    1
    20    21    22    1
    21    19    20   ar
    22    20    23    1
    23    23    24    1
    24     1    25    1
    25    25    26    1
    26    25    37    1
    27    37    38    1
    28    38    39    1
    29    39    40    1
    30    39    41    1
    31    25    28    1
    32    28    29   ar
    33    29    30   ar
    34    30    31   ar
    35    31    32   ar
    36    32    33   ar
    37    33    34   ar
    38    34    35   ar
    39    35    36   ar
    40    12     2   ar
    41    20    15   ar
    42    36    28   ar
    43    10     4   ar
    44    35    31   ar
    45    26    27    1
@<TRIPOS>MOLECULE
*****
 41 45 0 0 0
SMALL
GASTEIGER

@<TRIPOS>ATOM
      1 C          62.1436   89.0906   11.5884 C.3     1  UNL1        0.0792
      2 C          63.9617   89.9702   13.2226 C.ar    1  UNL1        0.1351
      3 C          65.0847   90.9163   13.5294 C.ar    1  UNL1        0.0366
      4 C          65.5124   91.9288   12.5086 C.ar    1  UNL1        0.0030
      5 C          66.6352   92.8748   12.8153 C.ar    1  UNL1        0.0006
      6 C          67.0629   93.8873   11.7945 C.ar    1  UNL1        0.0067
      7 C          66.3677   93.9537   10.4670 C.ar    1  UNL1        0.0346
      8 BR         66.7954   94.9662    9.4462 Br      1  UNL1       -0.0490
      9 C          65.2448   93.0076   10.1603 C.ar    1  UNL1        0.0067
     10 C          64.8171   91.9952   11.1810 C.ar    1  UNL1        0.0004
     11 C          63.6942   91.0491   10.8744 C.ar    1  UNL1       -0.0009
     12 C          63.2665   90.0367   11.8952 C.ar    1  UNL1        0.0182
     13 C          63.5928   89.2945   15.7040 C.3     1  UNL1        0.2525
     14 O          63.5341   88.9578   14.2434 O.3     1  UNL1       -0.4717
     15 C          62.4322   87.7694   10.9394 C.ar    1  UNL1        0.0245
     16 C          62.5205   87.6713    9.4451 C.ar    1  UNL1        0.0200
     17 C          62.8091   86.3501    8.7961 C.ar    1  UNL1        0.1019
     18 N          63.0092   85.1271    9.6413 N.ar    1  UNL1       -0.2076
     19 C          62.9209   85.2253   11.1354 C.ar    1  UNL1        0.2598
     20 C          62.6323   86.5465   11.7845 C.ar    1  UNL1        0.1879
     21 O          63.1211   84.0023   11.9805 O.3     1  UNL1       -0.4541
     22 C          64.2802   83.0882   11.7143 C.3     1  UNL1        0.2543
     23 O          62.5440   86.6447   13.2786 O.3     1  UNL1       -0.4670
     24 C          63.5524   85.9407   14.1375 C.3     1  UNL1        0.2527
     25 C          60.7322   89.4657   11.9307 C.3     1  UNL1        0.1159
     26 O          61.1693   89.8486   13.3135 O.3     1  UNL1       -0.3820
     27 H          61.8096   89.1981   13.6420 H       1  UNL1        0.2107
     28 C          60.2951   89.0828   10.5479 C.ar    1  UNL1        0.0026
     29 C          59.7953   87.6948   10.2767 C.ar    1  UNL1        0.0011
     30 C          59.3581   87.3119    8.8937 C.ar    1  UNL1        0.0372
     31 C          59.4208   88.3170    7.7821 C.ar    1  UNL1        0.1454
     32 O          59.0608   88.2298    6.3286 O.2     1  UNL1       -0.4504
     33 C          59.3380   89.5639    5.7014 C.ar    1  UNL1        0.1796
     34 C          59.8694   90.4756    6.7674 C.ar    1  UNL1        0.0437
     35 C          59.9206   89.7051    8.0533 C.ar    1  UNL1        0.0375
     36 C          60.3577   90.0880    9.4362 C.ar    1  UNL1        0.0011
     37 C          59.3208   89.8408   12.2730 C.3     1  UNL1        0.0491
     38 C          58.2360   88.8062   12.2205 C.3     1  UNL1        0.0750
     39 N          57.5858   88.3363   13.4880 N.3     1  UNL1       -0.2702
     40 C          56.1490   87.9057   13.4789 C.3     1  UNL1        0.0897
     41 C          58.3724   88.2970   14.7646 C.3     1  UNL1        0.0897
@<TRIPOS>BOND
     1    13    14    1
     2    14     2    1
     3     2     3   ar
     4     3     4   ar
     5     4     5   ar
     6     5     6   ar
     7     6     7   ar
     8     7     8    1
     9     7     9   ar
    10     9    10   ar
    11    10    11   ar
    12    11    12   ar
    13     1    12    1
    14     1    15    1
    15    15    16   ar
    16    16    17   ar
    17    17    18   ar
    18    18    19   ar
    19    19    21    1
    20    21    22    1
    21    19    20   ar
    22    20    23    1
    23    23    24    1
    24     1    25    1
    25    25    26    1
    26    25    37    1
    27    37    38    1
    28    38    39    1
    29    39    40    1
    30    39    41    1
    31    25    28    1
    32    28    29   ar
    33    29    30   ar
    34    30    31   ar
    35    31    32   ar
    36    32    33   ar
    37    33    34   ar
    38    34    35   ar
    39    35    36   ar
    40    12     2   ar
    41    20    15   ar
    42    36    28   ar
    43    10     4   ar
    44    35    31   ar
    45    26    27    1
@<TRIPOS>MOLECULE
*****
 41 45 0 0 0
SMALL
GASTEIGER

@<TRIPOS>ATOM
      1 C          62.9124   88.1906   12.7055 C.3     1  UNL1        0.0792
      2 C          63.4856   90.3187   11.3297 C.ar    1  UNL1        0.1351
      3 C          64.2213   91.6189   11.1941 C.ar    1  UNL1        0.0366
      4 C          65.1197   92.0910   12.2986 C.ar    1  UNL1        0.0030
      5 C          65.8555   93.3910   12.1630 C.ar    1  UNL1        0.0006
      6 C          66.7538   93.8632   13.2676 C.ar    1  UNL1        0.0067
      7 C          66.9164   93.0352   14.5077 C.ar    1  UNL1        0.0346
      8 BR         67.8148   93.5073   15.6123 Br      1  UNL1       -0.0490
      9 C          66.1807   91.7351   14.6434 C.ar    1  UNL1        0.0067
     10 C          65.2823   91.2629   13.5388 C.ar    1  UNL1        0.0004
     11 C          64.5465   89.9629   13.6744 C.ar    1  UNL1       -0.0009
     12 C          63.6482   89.4908   12.5698 C.ar    1  UNL1        0.0182
     13 C          62.1797   90.7919    9.1340 C.3     1  UNL1        0.2525
     14 O          62.5872   89.8466   10.2251 O.3     1  UNL1       -0.4717
     15 C          63.4656   87.1033   13.5783 C.ar    1  UNL1        0.0245
     16 C          64.2287   85.9659   12.9667 C.ar    1  UNL1        0.0200
     17 C          64.7819   84.8787   13.8395 C.ar    1  UNL1        0.1019
     18 N          64.5719   84.9288   15.3239 N.ar    1  UNL1       -0.2076
     19 C          63.8088   86.0661   15.9355 C.ar    1  UNL1        0.2598
     20 C          63.2556   87.1534   15.0627 C.ar    1  UNL1        0.1879
     21 O          63.5988   86.1162   17.4198 O.3     1  UNL1       -0.4541
     22 C          62.2184   86.3028   17.9762 C.3     1  UNL1        0.2543
     23 O          62.4925   88.2907   15.6742 O.3     1  UNL1       -0.4670
     24 C          63.2144   89.3337   16.4749 C.3     1  UNL1        0.2527
     25 C          61.6235   87.9778   11.9683 C.3     1  UNL1        0.1159
     26 O          61.0598   89.2181   12.5960 O.3     1  UNL1       -0.3820
     27 H          61.3231   89.2568   13.5287 H       1  UNL1        0.2107
     28 C          62.1872   86.7376   11.3407 C.ar    1  UNL1        0.0026
     29 C          62.8881   86.8189   10.0170 C.ar    1  UNL1        0.0011
     30 C          63.4519   85.5786    9.3894 C.ar    1  UNL1        0.0372
     31 C          63.3147   84.2570   10.0855 C.ar    1  UNL1        0.1454
     32 O          63.7655   82.8754    9.7140 O.2     1  UNL1       -0.4504
     33 C          63.3433   81.9402   10.8081 C.ar    1  UNL1        0.1796
     34 C          62.6315   82.7438   11.8557 C.ar    1  UNL1        0.0437
     35 C          62.6138   84.1756   11.4091 C.ar    1  UNL1        0.0375
     36 C          62.0501   85.4159   12.0368 C.ar    1  UNL1        0.0011
     37 C          60.3346   87.7650   11.2312 C.3     1  UNL1        0.0491
     38 C          59.9701   88.6601   10.0840 C.3     1  UNL1        0.0750
     39 N          59.7188   88.0742    8.7261 N.3     1  UNL1       -0.2702
     40 C          59.4861   88.9772    7.5511 C.3     1  UNL1        0.0897
     41 C          59.7003   86.5856    8.5433 C.3     1  UNL1        0.0897
@<TRIPOS>BOND
     1    13    14    1
     2    14     2    1
     3     2     3   ar
     4     3     4   ar
     5     4     5   ar
     6     5     6   ar
     7     6     7   ar
     8     7     8    1
     9     7     9   ar
    10     9    10   ar
    11    10    11   ar
    12    11    12   ar
    13     1    12    1
    14     1    15    1
    15    15    16   ar
    16    16    17   ar
    17    17    18   ar
    18    18    19   ar
    19    19    21    1
    20    21    22    1
    21    19    20   ar
    22    20    23    1
    23    23    24    1
    24     1    25    1
    25    25    26    1
    26    25    37    1
    27    37    38    1
    28    38    39    1
    29    39    40    1
    30    39    41    1
    31    25    28    1
    32    28    29   ar
    33    29    30   ar
    34    30    31   ar
    35    31    32   ar
    36    32    33   ar
    37    33    34   ar
    38    34    35   ar
    39    35    36   ar
    40    12     2   ar
    41    20    15   ar
    42    36    28   ar
    43    10     4   ar
    44    35    31   ar
    45    26    27    1
@<TRIPOS>MOLECULE
*****
 41 45 0 0 0
SMALL
GASTEIGER

@<TRIPOS>ATOM
      1 C          62.6762   88.7444   12.7451 C.3     1  UNL1        0.0792
      2 C          63.4149   86.9503   14.4731 C.ar    1  UNL1        0.1351
      3 C          63.7293   85.5228   14.8097 C.ar    1  UNL1        0.0366
      4 C          63.6195   84.4618   13.7551 C.ar    1  UNL1        0.0030
      5 C          63.9339   83.0343   14.0916 C.ar    1  UNL1        0.0006
      6 C          63.8241   81.9733   13.0370 C.ar    1  UNL1        0.0067
      7 C          63.3999   82.3399   11.6457 C.ar    1  UNL1        0.0346
      8 BR         63.2901   81.2789   10.5911 Br      1  UNL1       -0.0490
      9 C          63.0855   83.7675   11.3091 C.ar    1  UNL1        0.0067
     10 C          63.1953   84.8284   12.3637 C.ar    1  UNL1        0.0004
     11 C          62.8808   86.2559   12.0271 C.ar    1  UNL1       -0.0009
     12 C          62.9906   87.3169   13.0818 C.ar    1  UNL1        0.0182
     13 C          63.1274   87.7070   16.9419 C.3     1  UNL1        0.2525
     14 O          63.5247   88.0113   15.5277 O.3     1  UNL1       -0.4717
     15 C          63.7223   89.8047   12.9224 C.ar    1  UNL1        0.0245
     16 C          64.7571   89.6648   13.9994 C.ar    1  UNL1        0.0200
     17 C          65.8032   90.7250   14.1767 C.ar    1  UNL1        0.1019
     18 N          65.8146   91.9253   13.2770 N.ar    1  UNL1       -0.2076
     19 C          64.7799   92.0652   12.2001 C.ar    1  UNL1        0.2598
     20 C          63.7337   91.0049   12.0228 C.ar    1  UNL1        0.1879
     21 O          64.7913   93.2654   11.3005 O.3     1  UNL1       -0.4541
     22 C          65.9939   93.5555   10.4522 C.3     1  UNL1        0.2543
     23 O          62.6990   91.1448   10.9459 O.3     1  UNL1       -0.4670
     24 C          63.1220   91.3042    9.5156 C.3     1  UNL1        0.2527
     25 C          61.3157   89.1116   12.2312 C.3     1  UNL1        0.1159
     26 O          61.0905   89.9698   13.4407 O.3     1  UNL1       -0.3820
     27 H          61.4319   89.5161   14.2271 H       1  UNL1        0.2107
     28 C          61.5409   88.2535   11.0218 C.ar    1  UNL1        0.0026
     29 C          62.9346   88.0122   10.5224 C.ar    1  UNL1        0.0011
     30 C          63.1598   87.1540    9.3129 C.ar    1  UNL1        0.0372
     31 C          61.9914   86.5372    8.6028 C.ar    1  UNL1        0.1454
     32 O          61.9041   85.6527    7.3945 O.2     1  UNL1       -0.4504
     33 C          60.4565   85.3474    7.1470 C.ar    1  UNL1        0.1796
     34 C          59.6491   86.0432    8.2025 C.ar    1  UNL1        0.0437
     35 C          60.5977   86.7785    9.1022 C.ar    1  UNL1        0.0375
     36 C          60.3725   87.6366   10.3117 C.ar    1  UNL1        0.0011
     37 C          59.9552   89.4789   11.7173 C.3     1  UNL1        0.0491
     38 C          58.8789   89.8956   12.6754 C.3     1  UNL1        0.0750
     39 N          58.2231   88.8745   13.5570 N.3     1  UNL1       -0.2702
     40 C          56.9056   88.2767   13.1608 C.3     1  UNL1        0.0897
     41 C          58.8848   88.4511   14.8349 C.3     1  UNL1        0.0897
@<TRIPOS>BOND
     1    13    14    1
     2    14     2    1
     3     2     3   ar
     4     3     4   ar
     5     4     5   ar
     6     5     6   ar
     7     6     7   ar
     8     7     8    1
     9     7     9   ar
    10     9    10   ar
    11    10    11   ar
    12    11    12   ar
    13     1    12    1
    14     1    15    1
    15    15    16   ar
    16    16    17   ar
    17    17    18   ar
    18    18    19   ar
    19    19    21    1
    20    21    22    1
    21    19    20   ar
    22    20    23    1
    23    23    24    1
    24     1    25    1
    25    25    26    1
    26    25    37    1
    27    37    38    1
    28    38    39    1
    29    39    40    1
    30    39    41    1
    31    25    28    1
    32    28    29   ar
    33    29    30   ar
    34    30    31   ar
    35    31    32   ar
    36    32    33   ar
    37    33    34   ar
    38    34    35   ar
    39    35    36   ar
    40    12     2   ar
    41    20    15   ar
    42    36    28   ar
    43    10     4   ar
    44    35    31   ar
    45    26    27    1
@<TRIPOS>MOLECULE
*****
 41 45 0 0 0
SMALL
GASTEIGER

@<TRIPOS>ATOM
      1 C          64.5832   91.4104   13.1446 C.3     1  UNL1        0.0792
      2 C          63.7759   90.6751   15.5021 C.ar    1  UNL1        0.1351
      3 C          63.4471   89.5881   16.4821 C.ar    1  UNL1        0.0366
      4 C          63.5968   88.1495   16.0847 C.ar    1  UNL1        0.0030
      5 C          63.2680   87.0626   17.0647 C.ar    1  UNL1        0.0006
      6 C          63.4176   85.6239   16.6672 C.ar    1  UNL1        0.0067
      7 C          63.8961   85.2723   15.2898 C.ar    1  UNL1        0.0346
      8 BR         64.0457   83.8336   14.8923 Br      1  UNL1       -0.0490
      9 C          64.2249   86.3592   14.3097 C.ar    1  UNL1        0.0067
     10 C          64.0753   87.7978   14.7072 C.ar    1  UNL1        0.0004
     11 C          64.4040   88.8848   13.7272 C.ar    1  UNL1       -0.0009
     12 C          64.2544   90.3234   14.1246 C.ar    1  UNL1        0.0182
     13 C          64.5049   92.6916   16.9693 C.3     1  UNL1        0.2525
     14 O          63.6263   92.1137   15.8995 O.3     1  UNL1       -0.4717
     15 C          65.5907   92.4627   13.5018 C.ar    1  UNL1        0.0245
     16 C          65.3934   93.8768   13.0419 C.ar    1  UNL1        0.0200
     17 C          66.4008   94.9291   13.3992 C.ar    1  UNL1        0.1019
     18 N          67.6056   94.5674   14.2163 N.ar    1  UNL1       -0.2076
     19 C          67.8029   93.1533   14.6762 C.ar    1  UNL1        0.2598
     20 C          66.7954   92.1010   14.3189 C.ar    1  UNL1        0.1879
     21 O          69.0076   92.7916   15.4933 O.3     1  UNL1       -0.4541
     22 C          69.8629   93.8714   16.0870 C.3     1  UNL1        0.2543
     23 O          66.9927   90.6869   14.7788 O.3     1  UNL1       -0.4670
     24 C          67.8236   90.4028   15.9949 C.3     1  UNL1        0.2527
     25 C          63.9046   91.4450   11.8073 C.3     1  UNL1        0.1159
     26 O          62.6765   90.8344   12.4148 O.3     1  UNL1       -0.3820
     27 H          62.9362   90.1390   13.0392 H       1  UNL1        0.2107
     28 C          65.1327   92.0555   11.1999 C.ar    1  UNL1        0.0026
     29 C          66.4619   91.3779   11.3542 C.ar    1  UNL1        0.0011
     30 C          67.6900   91.9885   10.7467 C.ar    1  UNL1        0.0372
     31 C          67.5888   93.2768    9.9850 C.ar    1  UNL1        0.1454
     32 O          68.6183   94.1100    9.2809 O.2     1  UNL1       -0.4504
     33 C          67.9254   95.3026    8.6914 C.ar    1  UNL1        0.1796
     34 C          66.4676   95.2064    9.0313 C.ar    1  UNL1        0.0437
     35 C          66.2595   93.9544    9.8308 C.ar    1  UNL1        0.0375
     36 C          65.0315   93.3438   10.4382 C.ar    1  UNL1        0.0011
     37 C          63.2260   91.4796   10.4701 C.3     1  UNL1        0.0491
     38 C          62.8451   90.1986    9.7890 C.3     1  UNL1        0.0750
     39 N          61.6205   89.4514   10.2274 N.3     1  UNL1       -0.2702
     40 C          60.2750   90.1112   10.1599 C.3     1  UNL1        0.0897
     41 C          61.7413   88.0445   10.7333 C.3     1  UNL1        0.0897
@<TRIPOS>BOND
     1    13    14    1
     2    14     2    1
     3     2     3   ar
     4     3     4   ar
     5     4     5   ar
     6     5     6   ar
     7     6     7   ar
     8     7     8    1
     9     7     9   ar
    10     9    10   ar
    11    10    11   ar
    12    11    12   ar
    13     1    12    1
    14     1    15    1
    15    15    16   ar
    16    16    17   ar
    17    17    18   ar
    18    18    19   ar
    19    19    21    1
    20    21    22    1
    21    19    20   ar
    22    20    23    1
    23    23    24    1
    24     1    25    1
    25    25    26    1
    26    25    37    1
    27    37    38    1
    28    38    39    1
    29    39    40    1
    30    39    41    1
    31    25    28    1
    32    28    29   ar
    33    29    30   ar
    34    30    31   ar
    35    31    32   ar
    36    32    33   ar
    37    33    34   ar
    38    34    35   ar
    39    35    36   ar
    40    12     2   ar
    41    20    15   ar
    42    36    28   ar
    43    10     4   ar
    44    35    31   ar
    45    26    27    1
@<TRIPOS>MOLECULE
*****
 41 45 0 0 0
SMALL
GASTEIGER

@<TRIPOS>ATOM
      1 C          62.2627   89.2953   12.0341 C.3     1  UNL1        0.0792
      2 C          63.9072   90.4610   13.6733 C.ar    1  UNL1        0.1351
      3 C          64.9459   91.5085   13.9453 C.ar    1  UNL1        0.0366
      4 C          65.3787   92.4377   12.8502 C.ar    1  UNL1        0.0030
      5 C          66.4174   93.4851   13.1222 C.ar    1  UNL1        0.0006
      6 C          66.8502   94.4143   12.0271 C.ar    1  UNL1        0.0067
      7 C          66.2445   94.2960   10.6600 C.ar    1  UNL1        0.0346
      8 BR         66.6773   95.2252    9.5649 Br      1  UNL1       -0.0490
      9 C          65.2058   93.2485   10.3879 C.ar    1  UNL1        0.0067
     10 C          64.7729   92.3194   11.4831 C.ar    1  UNL1        0.0004
     11 C          63.7342   91.2719   11.2111 C.ar    1  UNL1       -0.0009
     12 C          63.3014   90.3427   12.3062 C.ar    1  UNL1        0.0182
     13 C          63.6122   89.9477   16.2030 C.3     1  UNL1        0.2525
     14 O          63.4743   89.5318   14.7684 O.3     1  UNL1       -0.4717
     15 C          61.0687   89.1716   12.9336 C.ar    1  UNL1        0.0245
     16 C          61.2508   89.1444   14.4223 C.ar    1  UNL1        0.0200
     17 C          60.0568   89.0208   15.3218 C.ar    1  UNL1        0.1019
     18 N          58.6806   88.9244   14.7326 N.ar    1  UNL1       -0.2076
     19 C          58.4986   88.9517   13.2439 C.ar    1  UNL1        0.2598
     20 C          59.6926   89.0753   12.3445 C.ar    1  UNL1        0.1879
     21 O          57.1226   88.8553   12.6548 O.3     1  UNL1       -0.4541
     22 C          56.0967   87.9623   13.2874 C.3     1  UNL1        0.2543
     23 O          59.5106   89.1025   10.8558 O.3     1  UNL1       -0.4670
     24 C          59.5520   90.4084   10.1189 C.3     1  UNL1        0.2527
     25 C          62.4180   88.3714   10.8626 C.3     1  UNL1        0.1159
     26 O          62.1644   89.5158    9.9266 O.3     1  UNL1       -0.3820
     27 H          61.4501   90.0695   10.2790 H       1  UNL1        0.2107
     28 C          62.6716   87.2271   11.7987 C.ar    1  UNL1        0.0026
     29 C          61.9433   85.9293   11.6113 C.ar    1  UNL1        0.0011
     30 C          62.1970   84.7849   12.5474 C.ar    1  UNL1        0.0372
     31 C          63.1789   84.9385   13.6708 C.ar    1  UNL1        0.1454
     32 O          63.6323   83.9934   14.7437 O.2     1  UNL1       -0.4504
     33 C          64.6409   84.7071   15.5943 C.ar    1  UNL1        0.1796
     34 C          64.8108   86.0933   15.0470 C.ar    1  UNL1        0.0437
     35 C          63.9072   86.2363   13.8582 C.ar    1  UNL1        0.0375
     36 C          63.6536   87.3806   12.9222 C.ar    1  UNL1        0.0011
     37 C          62.5733   87.4476    9.6912 C.3     1  UNL1        0.0491
     38 C          61.4645   87.3129    8.6901 C.3     1  UNL1        0.0750
     39 N          61.2974   86.0344    7.9235 N.3     1  UNL1       -0.2702
     40 C          59.9476   85.6472    7.3959 C.3     1  UNL1        0.0897
     41 C          62.4800   85.1432    7.6844 C.3     1  UNL1        0.0897
@<TRIPOS>BOND
     1    13    14    1
     2    14     2    1
     3     2     3   ar
     4     3     4   ar
     5     4     5   ar
     6     5     6   ar
     7     6     7   ar
     8     7     8    1
     9     7     9   ar
    10     9    10   ar
    11    10    11   ar
    12    11    12   ar
    13     1    12    1
    14     1    15    1
    15    15    16   ar
    16    16    17   ar
    17    17    18   ar
    18    18    19   ar
    19    19    21    1
    20    21    22    1
    21    19    20   ar
    22    20    23    1
    23    23    24    1
    24     1    25    1
    25    25    26    1
    26    25    37    1
    27    37    38    1
    28    38    39    1
    29    39    40    1
    30    39    41    1
    31    25    28    1
    32    28    29   ar
    33    29    30   ar
    34    30    31   ar
    35    31    32   ar
    36    32    33   ar
    37    33    34   ar
    38    34    35   ar
    39    35    36   ar
    40    12     2   ar
    41    20    15   ar
    42    36    28   ar
    43    10     4   ar
    44    35    31   ar
    45    26    27    1
@<TRIPOS>MOLECULE
*****
 41 45 0 0 0
SMALL
GASTEIGER

@<TRIPOS>ATOM
      1 C          62.0759   87.6923   10.6207 C.3     1  UNL1        0.0792
      2 C          63.3658   87.3222   12.8454 C.ar    1  UNL1        0.1351
      3 C          63.8601   86.4032   13.9230 C.ar    1  UNL1        0.0366
      4 C          63.5588   84.9354   13.8536 C.ar    1  UNL1        0.0030
      5 C          64.0530   84.0165   14.9311 C.ar    1  UNL1        0.0006
      6 C          63.7517   82.5487   14.8617 C.ar    1  UNL1        0.0067
      7 C          62.9560   81.9999   13.7146 C.ar    1  UNL1        0.0346
      8 BR         62.6547   80.5321   13.6452 Br      1  UNL1       -0.0490
      9 C          62.4617   82.9188   12.6370 C.ar    1  UNL1        0.0067
     10 C          62.7631   84.3866   12.7065 C.ar    1  UNL1        0.0004
     11 C          62.2688   85.3056   11.6289 C.ar    1  UNL1       -0.0009
     12 C          62.5702   86.7733   11.6984 C.ar    1  UNL1        0.0182
     13 C          64.1780   89.3911   14.1907 C.3     1  UNL1        0.2525
     14 O          63.6672   88.7899   12.9149 O.3     1  UNL1       -0.4717
     15 C          61.3644   87.1317    9.4251 C.ar    1  UNL1        0.0245
     16 C          59.9593   87.5594    9.1198 C.ar    1  UNL1        0.0200
     17 C          59.2478   86.9988    7.9242 C.ar    1  UNL1        0.1019
     18 N          59.9413   86.0106    7.0339 N.ar    1  UNL1       -0.2076
     19 C          61.3463   85.5830    7.3392 C.ar    1  UNL1        0.2598
     20 C          62.0578   86.1435    8.5348 C.ar    1  UNL1        0.1879
     21 O          62.0397   84.5948    6.4490 O.3     1  UNL1       -0.4541
     22 C          61.3375   84.0537    5.2389 C.3     1  UNL1        0.2543
     23 O          63.4627   85.7160    8.8402 O.3     1  UNL1       -0.4670
     24 C          63.7622   84.2746    9.1282 C.3     1  UNL1        0.2527
     25 C          62.2931   89.1718   10.7387 C.3     1  UNL1        0.1159
     26 O          63.7010   89.0041   10.2494 O.3     1  UNL1       -0.3820
     27 H          64.0924   88.2145   10.6548 H       1  UNL1        0.2107
     28 C          60.8851   89.3394   11.2281 C.ar    1  UNL1        0.0026
     29 C          60.0875   90.5424   10.8199 C.ar    1  UNL1        0.0011
     30 C          58.6795   90.7100   11.3093 C.ar    1  UNL1        0.0372
     31 C          58.0692   89.6748   12.2069 C.ar    1  UNL1        0.1454
     32 O          56.7145   89.5701   12.8423 O.2     1  UNL1       -0.4504
     33 C          56.6748   88.3024   13.6433 C.ar    1  UNL1        0.1796
     34 C          58.0051   87.6237   13.5028 C.ar    1  UNL1        0.0437
     35 C          58.8668   88.4718   12.6151 C.ar    1  UNL1        0.0375
     36 C          60.2748   88.3041   12.1257 C.ar    1  UNL1        0.0011
     37 C          62.5103   90.6512   10.8567 C.3     1  UNL1        0.0491
     38 C          63.6793   91.2946   10.1716 C.3     1  UNL1        0.0750
     39 N          64.7006   92.0436   10.9755 N.3     1  UNL1       -0.2702
     40 C          64.6413   92.0180   12.4741 C.3     1  UNL1        0.0897
     41 C          65.7811   92.8180   10.2808 C.3     1  UNL1        0.0897
@<TRIPOS>BOND
     1    13    14    1
     2    14     2    1
     3     2     3   ar
     4     3     4   ar
     5     4     5   ar
     6     5     6   ar
     7     6     7   ar
     8     7     8    1
     9     7     9   ar
    10     9    10   ar
    11    10    11   ar
    12    11    12   ar
    13     1    12    1
    14     1    15    1
    15    15    16   ar
    16    16    17   ar
    17    17    18   ar
    18    18    19   ar
    19    19    21    1
    20    21    22    1
    21    19    20   ar
    22    20    23    1
    23    23    24    1
    24     1    25    1
    25    25    26    1
    26    25    37    1
    27    37    38    1
    28    38    39    1
    29    39    40    1
    30    39    41    1
    31    25    28    1
    32    28    29   ar
    33    29    30   ar
    34    30    31   ar
    35    31    32   ar
    36    32    33   ar
    37    33    34   ar
    38    34    35   ar
    39    35    36   ar
    40    12     2   ar
    41    20    15   ar
    42    36    28   ar
    43    10     4   ar
    44    35    31   ar
    45    26    27    1
@<TRIPOS>MOLECULE
*****
 41 45 0 0 0
SMALL
GASTEIGER

@<TRIPOS>ATOM
      1 C          62.8640   89.8633   12.1353 C.3     1  UNL1        0.0792
      2 C          63.1942   89.1477   14.6110 C.ar    1  UNL1        0.1351
      3 C          63.5168   88.0913   15.6260 C.ar    1  UNL1        0.0366
      4 C          63.8318   86.6942   15.1801 C.ar    1  UNL1        0.0030
      5 C          64.1544   85.6378   16.1950 C.ar    1  UNL1        0.0006
      6 C          64.4694   84.2407   15.7491 C.ar    1  UNL1        0.0067
      7 C          64.4618   83.8999   14.2884 C.ar    1  UNL1        0.0346
      8 BR         64.7768   82.5028   13.8426 Br      1  UNL1       -0.0490
      9 C          64.1392   84.9563   13.2734 C.ar    1  UNL1        0.0067
     10 C          63.8242   86.3534   13.7193 C.ar    1  UNL1        0.0004
     11 C          63.5016   87.4098   12.7044 C.ar    1  UNL1       -0.0009
     12 C          63.1866   88.8069   13.1503 C.ar    1  UNL1        0.0182
     13 C          63.3076   91.0129   16.4161 C.3     1  UNL1        0.2525
     14 O          62.8792   90.5448   15.0569 O.3     1  UNL1       -0.4717
     15 C          63.8949   90.8885   11.7662 C.ar    1  UNL1        0.0245
     16 C          63.8096   91.5965   10.4465 C.ar    1  UNL1        0.0200
     17 C          64.8405   92.6217   10.0774 C.ar    1  UNL1        0.1019
     18 N          65.9567   92.9388   11.0280 N.ar    1  UNL1       -0.2076
     19 C          66.0420   92.2308   12.3476 C.ar    1  UNL1        0.2598
     20 C          65.0111   91.2056   12.7167 C.ar    1  UNL1        0.1879
     21 O          67.1582   92.5479   13.2981 O.3     1  UNL1       -0.4541
     22 C          67.0265   93.6972   14.2529 C.3     1  UNL1        0.2543
     23 O          65.0964   90.4976   14.0363 O.3     1  UNL1       -0.4670
     24 C          66.3713   90.5338   14.8259 C.3     1  UNL1        0.2527
     25 C          61.5105   89.8945   11.4895 C.3     1  UNL1        0.1159
     26 O          61.3251   91.3110   11.9465 O.3     1  UNL1       -0.3820
     27 H          61.6601   91.4051   12.8519 H       1  UNL1        0.2107
     28 C          61.6960   88.4779   11.0325 C.ar    1  UNL1        0.0026
     29 C          61.0236   87.3579   11.7697 C.ar    1  UNL1        0.0011
     30 C          61.2091   85.9412   11.3126 C.ar    1  UNL1        0.0372
     31 C          62.0669   85.6447   10.1184 C.ar    1  UNL1        0.1454
     32 O          62.4320   84.3579    9.4395 O.2     1  UNL1       -0.4504
     33 C          63.3300   84.6826    8.2827 C.ar    1  UNL1        0.1796
     34 C          63.5199   86.1701    8.2467 C.ar    1  UNL1        0.0437
     35 C          62.7393   86.7647    9.3812 C.ar    1  UNL1        0.0375
     36 C          62.5538   88.1813    9.8382 C.ar    1  UNL1        0.0011
     37 C          60.1571   89.9256   10.8437 C.3     1  UNL1        0.0491
     38 C          60.0313   90.2276    9.3798 C.3     1  UNL1        0.0750
     39 N          59.5822   89.1576    8.4292 N.3     1  UNL1       -0.2702
     40 C          59.1261   87.8294    8.9562 C.3     1  UNL1        0.0897
     41 C          59.5893   89.4159    6.9516 C.3     1  UNL1        0.0897
@<TRIPOS>BOND
     1    13    14    1
     2    14     2    1
     3     2     3   ar
     4     3     4   ar
     5     4     5   ar
     6     5     6   ar
     7     6     7   ar
     8     7     8    1
     9     7     9   ar
    10     9    10   ar
    11    10    11   ar
    12    11    12   ar
    13     1    12    1
    14     1    15    1
    15    15    16   ar
    16    16    17   ar
    17    17    18   ar
    18    18    19   ar
    19    19    21    1
    20    21    22    1
    21    19    20   ar
    22    20    23    1
    23    23    24    1
    24     1    25    1
    25    25    26    1
    26    25    37    1
    27    37    38    1
    28    38    39    1
    29    39    40    1
    30    39    41    1
    31    25    28    1
    32    28    29   ar
    33    29    30   ar
    34    30    31   ar
    35    31    32   ar
    36    32    33   ar
    37    33    34   ar
    38    34    35   ar
    39    35    36   ar
    40    12     2   ar
    41    20    15   ar
    42    36    28   ar
    43    10     4   ar
    44    35    31   ar
    45    26    27    1
@<TRIPOS>MOLECULE
*****
 41 45 0 0 0
SMALL
GASTEIGER

@<TRIPOS>ATOM
      1 C          64.1054   90.3793   13.3390 C.3     1  UNL1        0.0792
      2 C          63.3563   89.2822   15.5718 C.ar    1  UNL1        0.1351
      3 C          63.1309   88.0553   16.4050 C.ar    1  UNL1        0.0366
      4 C          63.4292   86.6988   15.8386 C.ar    1  UNL1        0.0030
      5 C          63.2038   85.4720   16.6717 C.ar    1  UNL1        0.0006
      6 C          63.5020   84.1155   16.1052 C.ar    1  UNL1        0.0067
      7 C          64.0257   83.9858   14.7057 C.ar    1  UNL1        0.0346
      8 BR         64.3240   82.6293   14.1392 Br      1  UNL1       -0.0490
      9 C          64.2511   85.2126   13.8725 C.ar    1  UNL1        0.0067
     10 C          63.9529   86.5691   14.4389 C.ar    1  UNL1        0.0004
     11 C          64.1783   87.7959   13.6058 C.ar    1  UNL1       -0.0009
     12 C          63.8800   89.1524   14.1723 C.ar    1  UNL1        0.0182
     13 C          64.1612   91.4613   16.7353 C.3     1  UNL1        0.2525
     14 O          63.0580   90.6387   16.1383 O.3     1  UNL1       -0.4717
     15 C          65.4746   90.9858   13.2523 C.ar    1  UNL1        0.0245
     16 C          66.4136   90.8874   14.4180 C.ar    1  UNL1        0.0200
     17 C          67.7828   91.4940   14.3312 C.ar    1  UNL1        0.1019
     18 N          68.2129   92.1989   13.0789 N.ar    1  UNL1       -0.2076
     19 C          67.2738   92.2972   11.9134 C.ar    1  UNL1        0.2598
     20 C          65.9047   91.6907   12.0001 C.ar    1  UNL1        0.1879
     21 O          67.7040   93.0021   10.6612 O.3     1  UNL1       -0.4541
     22 C          68.3412   92.2276    9.5457 C.3     1  UNL1        0.2543
     23 O          64.9656   91.7890   10.8346 O.3     1  UNL1       -0.4670
     24 C          64.7499   93.1085   10.1545 C.3     1  UNL1        0.2527
     25 C          62.9617   90.9995   12.5926 C.3     1  UNL1        0.1159
     26 O          63.3899   92.3573   13.0647 O.3     1  UNL1       -0.3820
     27 H          63.6601   92.3059   13.9949 H       1  UNL1        0.2107
     28 C          62.5335   89.6417   12.1205 C.ar    1  UNL1        0.0026
     29 C          61.4979   88.8733   12.8868 C.ar    1  UNL1        0.0011
     30 C          61.0697   87.5154   12.4146 C.ar    1  UNL1        0.0372
     31 C          61.6771   86.9260   11.1762 C.ar    1  UNL1        0.1454
     32 O          61.4554   85.6193   10.4738 O.2     1  UNL1       -0.4504
     33 C          62.3540   85.5801    9.2733 C.ar    1  UNL1        0.1796
     34 C          63.1310   86.8625    9.2339 C.ar    1  UNL1        0.0437
     35 C          62.7126   87.6944   10.4100 C.ar    1  UNL1        0.0375
     36 C          63.1409   89.0522   10.8821 C.ar    1  UNL1        0.0011
     37 C          61.8180   91.6197   11.8462 C.3     1  UNL1        0.0491
     38 C          61.3980   91.0616   10.5187 C.3     1  UNL1        0.0750
     39 N          60.0449   90.4329   10.3637 N.3     1  UNL1       -0.2702
     40 C          58.9616   90.7297   11.3579 C.3     1  UNL1        0.0897
     41 C          59.7751   89.5074    9.2145 C.3     1  UNL1        0.0897
@<TRIPOS>BOND
     1    13    14    1
     2    14     2    1
     3     2     3   ar
     4     3     4   ar
     5     4     5   ar
     6     5     6   ar
     7     6     7   ar
     8     7     8    1
     9     7     9   ar
    10     9    10   ar
    11    10    11   ar
    12    11    12   ar
    13     1    12    1
    14     1    15    1
    15    15    16   ar
    16    16    17   ar
    17    17    18   ar
    18    18    19   ar
    19    19    21    1
    20    21    22    1
    21    19    20   ar
    22    20    23    1
    23    23    24    1
    24     1    25    1
    25    25    26    1
    26    25    37    1
    27    37    38    1
    28    38    39    1
    29    39    40    1
    30    39    41    1
    31    25    28    1
    32    28    29   ar
    33    29    30   ar
    34    30    31   ar
    35    31    32   ar
    36    32    33   ar
    37    33    34   ar
    38    34    35   ar
    39    35    36   ar
    40    12     2   ar
    41    20    15   ar
    42    36    28   ar
    43    10     4   ar
    44    35    31   ar
    45    26    27    1
