@<TRIPOS>MOLECULE
*****
 50 56 0 0 0
SMALL
GASTEIGER

@<TRIPOS>ATOM
      1 C          58.6868   86.7519    8.6108 C.3     1  UNL1        0.0312
      2 C          59.5572   87.9431    8.3398 C.2     1  UNL1        0.0136
      3 C          59.3559   88.7506    7.0918 C.2     1  UNL1        0.0107
      4 C          60.2262   89.9418    6.8207 C.2     1  UNL1        0.0509
      5 C          61.2979   90.3256    7.7976 C.2     1  UNL1        0.0613
      6 C          61.4992   89.5181    9.0456 C.2     1  UNL1        0.2246
      7 N          62.4671   89.6536   10.1834 N.2     1  UNL1       -0.0378
      8 C          62.1950   88.5461   11.1578 C.2     1  UNL1        0.3605
      9 N          61.0589   87.7261   10.6221 N.2     1  UNL1       -0.0547
     10 C          60.6288   88.3269    9.3166 C.3     1  UNL1        0.2976
     11 C          62.9299   88.3014   12.4423 C.3     1  UNL1        0.2246
     12 C          63.4561   89.4593   13.2376 C.2     1  UNL1        0.0436
     13 C          64.1910   89.2145   14.5221 C.2     1  UNL1        0.0288
     14 C          64.3998   87.8120   15.0114 C.2     1  UNL1        0.0896
     15 N          63.8736   86.6541   14.2161 N.am    1  UNL1       -0.1770
     16 C          63.1387   86.8989   12.9315 C.2     1  UNL1        0.2627
     17 O          62.6125   85.7410   12.1362 O.2     1  UNL1       -0.2719
     18 N          63.2473   90.8618   12.7484 N.pl3   1  UNL1       -0.3329
     19 H          62.4746   91.3835   13.0647 H       1  UNL1        0.1466
     20 C          64.2158   91.4695   11.7775 C.3     1  UNL1        0.1211
     21 C          65.2410   92.4536   12.2574 C.3     1  UNL1        0.1522
     22 O          65.3955   92.7199   13.7255 O.3     1  UNL1       -0.3783
     23 H          64.7613   92.1782   14.2208 H       1  UNL1        0.2109
     24 C          66.1119   93.1713   11.2693 C.ar    1  UNL1        0.0067
     25 C          66.0458   94.6657   11.1580 C.ar    1  UNL1       -0.0018
     26 C          66.9167   95.3835   10.1698 C.ar    1  UNL1        0.0006
     27 C          67.8536   94.6068    9.2929 C.ar    1  UNL1        0.0114
     28 C          67.9197   93.1125    9.4042 C.ar    1  UNL1        0.0574
     29 CL         68.8567   92.3359    8.5273 Cl      1  UNL1       -0.0823
     30 C          67.0489   92.3947   10.3924 C.ar    1  UNL1        0.0095
     31 N          60.0248   90.7493    5.5727 N.pl3   1  UNL1       -0.3073
     32 C          61.2017   91.1132    4.7168 C.3     1  UNL1        0.0922
     33 C          61.0004   91.9207    3.4689 C.3     1  UNL1        0.0374
     34 C          59.6222   92.3642    3.0767 C.3     1  UNL1        0.0610
     35 C          58.4453   92.0003    3.9326 C.3     1  UNL1        0.0374
     36 C          58.6466   91.1928    5.1805 C.3     1  UNL1        0.0922
     37 N          59.4208   93.1717    1.8288 N.3     1  UNL1       -0.2710
     38 C          58.4358   92.7178    0.7926 C.3     1  UNL1        0.0939
     39 C          58.2344   93.5252   -0.4554 C.3     1  UNL1        0.1123
     40 N          59.0179   94.7866   -0.6672 N.am    1  UNL1       -0.2612
     41 C          58.8165   95.5940   -1.9152 C.2     1  UNL1        0.3074
     42 O          59.6001   96.8554   -2.1270 O.2     1  UNL1       -0.2523
     43 N          57.8315   95.1400   -2.9514 N.am    1  UNL1       -0.2589
     44 C          57.0480   93.8786   -2.7395 C.3     1  UNL1        0.1270
     45 C          56.0629   93.4247   -3.7757 C.3     1  UNL1        0.1637
     46 O          55.8615   94.2321   -5.0238 O.3     1  UNL1       -0.3501
     47 C          56.6450   95.4935   -5.2356 C.3     1  UNL1        0.1637
     48 C          57.6301   95.9475   -4.1993 C.3     1  UNL1        0.1270
     49 C          60.0030   95.2405    0.3690 C.3     1  UNL1        0.1123
     50 C          60.2044   94.4331    1.6170 C.3     1  UNL1        0.0939
@<TRIPOS>BOND
     1     1     2    1
     2     2     3    2
     3     3     4    1
     4     4    31    1
     5    31    32    1
     6    32    33    1
     7    33    34    1
     8    34    37    1
     9    37    38    1
    10    38    39    1
    11    39    40    1
    12    40    41   am
    13    41    42    2
    14    41    43   am
    15    43    44    1
    16    44    45    1
    17    45    46    1
    18    46    47    1
    19    47    48    1
    20    40    49    1
    21    49    50    1
    22    34    35    1
    23    35    36    1
    24     4     5    2
    25     5     6    1
    26     6     7    2
    27     7     8    1
    28     8    11    1
    29    11    12    1
    30    12    18    1
    31    18    20    1
    32    20    21    1
    33    21    22    1
    34    21    24    1
    35    24    25   ar
    36    25    26   ar
    37    26    27   ar
    38    27    28   ar
    39    28    29    1
    40    28    30   ar
    41    12    13    2
    42    13    14    1
    43    14    15    2
    44    15    16    1
    45    16    17    2
    46     8     9    2
    47     9    10    1
    48    10     2    1
    49    36    31    1
    50    10     6    1
    51    50    37    1
    52    16    11    1
    53    48    43    1
    54    30    24   ar
    55    18    19    1
    56    22    23    1
@<TRIPOS>MOLECULE
*****
 50 56 0 0 0
SMALL
GASTEIGER

@<TRIPOS>ATOM
      1 C          59.0258   86.9154    8.7491 C.3     1  UNL1        0.0312
      2 C          59.8071   88.1621    8.4569 C.2     1  UNL1        0.0136
      3 C          59.5615   88.9206    7.1863 C.2     1  UNL1        0.0107
      4 C          60.3427   90.1672    6.8941 C.2     1  UNL1        0.0509
      5 C          61.3696   90.6555    7.8726 C.2     1  UNL1        0.0613
      6 C          61.6151   89.8971    9.1431 C.2     1  UNL1        0.2246
      7 N          62.5552   90.1340   10.2878 N.2     1  UNL1       -0.0378
      8 C          62.3549   89.0337   11.2873 C.2     1  UNL1        0.3605
      9 N          61.2911   88.1167   10.7605 N.2     1  UNL1       -0.0547
     10 C          60.8339   88.6503    9.4353 C.3     1  UNL1        0.2976
     11 C          63.0895   88.8776   12.5858 C.3     1  UNL1        0.2246
     12 C          63.4086   87.5078   13.1071 C.2     1  UNL1        0.0436
     13 C          64.1432   87.3519   14.4056 C.2     1  UNL1        0.0288
     14 C          64.5587   88.5657   15.1828 C.2     1  UNL1        0.0896
     15 N          64.2396   89.9355   14.6615 N.am    1  UNL1       -0.1770
     16 C          63.5050   90.0914   13.3630 C.2     1  UNL1        0.2627
     17 O          63.1859   91.4612   12.8417 O.2     1  UNL1       -0.2719
     18 N          62.9932   86.2940   12.3300 N.pl3   1  UNL1       -0.3329
     19 H          62.3724   86.3840   11.5712 H       1  UNL1        0.1466
     20 C          63.5236   84.9430   12.7089 C.3     1  UNL1        0.1211
     21 C          62.6931   84.0204   13.5510 C.3     1  UNL1        0.1522
     22 O          61.9567   84.5532   14.7442 O.3     1  UNL1       -0.3783
     23 H          62.1234   85.5050   14.8286 H       1  UNL1        0.2109
     24 C          62.5991   82.5652   13.1998 C.ar    1  UNL1        0.0067
     25 C          62.2160   81.5637   14.2487 C.ar    1  UNL1       -0.0018
     26 C          62.1220   80.1084   13.8976 C.ar    1  UNL1        0.0006
     27 C          62.4111   79.6546   12.4974 C.ar    1  UNL1        0.0114
     28 C          62.7941   80.6560   11.4485 C.ar    1  UNL1        0.0574
     29 CL         63.0832   80.2021   10.0484 Cl      1  UNL1       -0.0823
     30 C          62.8882   82.1113   11.7997 C.ar    1  UNL1        0.0095
     31 N          60.0972   90.9257    5.6235 N.pl3   1  UNL1       -0.3073
     32 C          61.2418   91.2479    4.7092 C.3     1  UNL1        0.0922
     33 C          60.9963   92.0063    3.4386 C.3     1  UNL1        0.0374
     34 C          59.6061   92.4427    3.0823 C.3     1  UNL1        0.0610
     35 C          58.4614   92.1205    3.9966 C.3     1  UNL1        0.0374
     36 C          58.7070   91.3621    5.2672 C.3     1  UNL1        0.0922
     37 N          59.3605   93.2011    1.8117 N.3     1  UNL1       -0.2710
     38 C          58.4886   92.6116    0.7429 C.3     1  UNL1        0.0939
     39 C          58.2429   93.3700   -0.5277 C.3     1  UNL1        0.1123
     40 N          58.8691   94.7180   -0.7296 N.am    1  UNL1       -0.2612
     41 C          58.6235   95.4764   -2.0001 C.2     1  UNL1        0.3074
     42 O          59.2497   96.8244   -2.2020 O.2     1  UNL1       -0.2523
     43 N          57.7516   94.8868   -3.0689 N.am    1  UNL1       -0.2589
     44 C          57.1255   93.5388   -2.8670 C.3     1  UNL1        0.1270
     45 C          56.2536   92.9492   -3.9358 C.3     1  UNL1        0.1637
     46 O          56.0079   93.7076   -5.2065 O.3     1  UNL1       -0.3501
     47 C          56.6341   95.0556   -5.4083 C.3     1  UNL1        0.1637
     48 C          57.5059   95.6452   -4.3395 C.3     1  UNL1        0.1270
     49 C          59.7410   95.3075    0.3393 C.3     1  UNL1        0.1123
     50 C          59.9866   94.5491    1.6099 C.3     1  UNL1        0.0939
@<TRIPOS>BOND
     1     1     2    1
     2     2     3    2
     3     3     4    1
     4     4    31    1
     5    31    32    1
     6    32    33    1
     7    33    34    1
     8    34    37    1
     9    37    38    1
    10    38    39    1
    11    39    40    1
    12    40    41   am
    13    41    42    2
    14    41    43   am
    15    43    44    1
    16    44    45    1
    17    45    46    1
    18    46    47    1
    19    47    48    1
    20    40    49    1
    21    49    50    1
    22    34    35    1
    23    35    36    1
    24     4     5    2
    25     5     6    1
    26     6     7    2
    27     7     8    1
    28     8    11    1
    29    11    12    1
    30    12    18    1
    31    18    20    1
    32    20    21    1
    33    21    22    1
    34    21    24    1
    35    24    25   ar
    36    25    26   ar
    37    26    27   ar
    38    27    28   ar
    39    28    29    1
    40    28    30   ar
    41    12    13    2
    42    13    14    1
    43    14    15    2
    44    15    16    1
    45    16    17    2
    46     8     9    2
    47     9    10    1
    48    10     2    1
    49    36    31    1
    50    10     6    1
    51    50    37    1
    52    16    11    1
    53    48    43    1
    54    30    24   ar
    55    18    19    1
    56    22    23    1
@<TRIPOS>MOLECULE
*****
 50 56 0 0 0
SMALL
GASTEIGER

@<TRIPOS>ATOM
      1 C          58.6734   87.1314    8.3791 C.3     1  UNL1        0.0312
      2 C          59.6527   88.2370    8.1178 C.2     1  UNL1        0.0136
      3 C          59.5669   89.0304    6.8477 C.2     1  UNL1        0.0107
      4 C          60.5462   90.1360    6.5863 C.2     1  UNL1        0.0509
      5 C          61.6115   90.4484    7.5951 C.2     1  UNL1        0.0613
      6 C          61.6974   89.6551    8.8653 C.2     1  UNL1        0.2246
      7 N          62.6321   89.7327   10.0358 N.2     1  UNL1       -0.0378
      8 C          62.2304   88.6750   11.0206 C.2     1  UNL1        0.3605
      9 N          61.0474   87.9436   10.4587 N.2     1  UNL1       -0.0547
     10 C          60.7180   88.5494    9.1266 C.3     1  UNL1        0.2976
     11 C          62.8950   88.3973   12.3364 C.3     1  UNL1        0.2246
     12 C          63.3840   89.5339   13.1843 C.2     1  UNL1        0.0436
     13 C          64.0486   89.2561   14.5001 C.2     1  UNL1        0.0288
     14 C          64.2242   87.8418   14.9679 C.2     1  UNL1        0.0896
     15 N          63.7352   86.7052   14.1200 N.am    1  UNL1       -0.1770
     16 C          63.0706   86.9830   12.8042 C.2     1  UNL1        0.2627
     17 O          62.5815   85.8464   11.9563 O.2     1  UNL1       -0.2719
     18 N          63.2085   90.9482   12.7165 N.pl3   1  UNL1       -0.3329
     19 H          62.4545   91.4867   13.0494 H       1  UNL1        0.1466
     20 C          64.1816   91.5420   11.7416 C.3     1  UNL1        0.1211
     21 C          65.2165   92.5188   12.2157 C.3     1  UNL1        0.1522
     22 O          65.3561   92.8119   13.6802 O.3     1  UNL1       -0.3783
     23 H          64.7067   92.2905   14.1776 H       1  UNL1        0.2109
     24 C          66.1118   93.2026   11.2254 C.ar    1  UNL1        0.0067
     25 C          66.0638   94.6944   11.0759 C.ar    1  UNL1       -0.0018
     26 C          66.9591   95.3781   10.0856 C.ar    1  UNL1        0.0006
     27 C          67.9025   94.5702    9.2446 C.ar    1  UNL1        0.0114
     28 C          67.9504   93.0784    9.3940 C.ar    1  UNL1        0.0574
     29 CL         68.8938   92.2704    8.5530 Cl      1  UNL1       -0.0823
     30 C          67.0551   92.3946   10.3844 C.ar    1  UNL1        0.0095
     31 N          60.4603   90.9294    5.3161 N.pl3   1  UNL1       -0.3073
     32 C          59.1663   91.5784    4.9233 C.3     1  UNL1        0.0922
     33 C          59.0804   92.3717    3.6531 C.3     1  UNL1        0.0374
     34 C          60.2885   92.5160    2.7759 C.3     1  UNL1        0.0610
     35 C          61.5825   91.8670    3.1687 C.3     1  UNL1        0.0374
     36 C          61.6684   91.0737    4.4388 C.3     1  UNL1        0.0922
     37 N          60.2027   93.3093    1.5057 N.3     1  UNL1       -0.2710
     38 C          61.0559   92.9366    0.3296 C.3     1  UNL1        0.0939
     39 C          60.9702   93.7299   -0.9406 C.3     1  UNL1        0.1123
     40 N          60.0312   94.8958   -1.0347 N.am    1  UNL1       -0.2612
     41 C          59.9454   95.6891   -2.3048 C.2     1  UNL1        0.3074
     42 O          59.0064   96.8551   -2.3990 O.2     1  UNL1       -0.2523
     43 N          60.7986   95.3164   -3.4809 N.am    1  UNL1       -0.2589
     44 C          61.7376   94.1505   -3.3868 C.3     1  UNL1        0.1270
     45 C          62.5908   93.7777   -4.5628 C.3     1  UNL1        0.1637
     46 O          62.5051   94.5710   -5.8331 O.3     1  UNL1       -0.3501
     47 C          61.5661   95.7370   -5.9272 C.3     1  UNL1        0.1637
     48 C          60.7129   96.1097   -4.7511 C.3     1  UNL1        0.1270
     49 C          59.1780   95.2685    0.1414 C.3     1  UNL1        0.1123
     50 C          59.2637   94.4752    1.4116 C.3     1  UNL1        0.0939
@<TRIPOS>BOND
     1     1     2    1
     2     2     3    2
     3     3     4    1
     4     4    31    1
     5    31    32    1
     6    32    33    1
     7    33    34    1
     8    34    37    1
     9    37    38    1
    10    38    39    1
    11    39    40    1
    12    40    41   am
    13    41    42    2
    14    41    43   am
    15    43    44    1
    16    44    45    1
    17    45    46    1
    18    46    47    1
    19    47    48    1
    20    40    49    1
    21    49    50    1
    22    34    35    1
    23    35    36    1
    24     4     5    2
    25     5     6    1
    26     6     7    2
    27     7     8    1
    28     8    11    1
    29    11    12    1
    30    12    18    1
    31    18    20    1
    32    20    21    1
    33    21    22    1
    34    21    24    1
    35    24    25   ar
    36    25    26   ar
    37    26    27   ar
    38    27    28   ar
    39    28    29    1
    40    28    30   ar
    41    12    13    2
    42    13    14    1
    43    14    15    2
    44    15    16    1
    45    16    17    2
    46     8     9    2
    47     9    10    1
    48    10     2    1
    49    36    31    1
    50    10     6    1
    51    50    37    1
    52    16    11    1
    53    48    43    1
    54    30    24   ar
    55    18    19    1
    56    22    23    1
@<TRIPOS>MOLECULE
*****
 50 56 0 0 0
SMALL
GASTEIGER

@<TRIPOS>ATOM
      1 C          59.1782   89.1605   11.8520 C.3     1  UNL1        0.0312
      2 C          59.8941   88.8095   10.5814 C.2     1  UNL1        0.0136
      3 C          59.6730   89.6294    9.3449 C.2     1  UNL1        0.0107
      4 C          60.3888   89.2785    8.0744 C.2     1  UNL1        0.0509
      5 C          61.3258   88.1076    8.0402 C.2     1  UNL1        0.0613
      6 C          61.5468   87.2877    9.2767 C.2     1  UNL1        0.2246
      7 N          62.4039   86.0861    9.5442 N.2     1  UNL1       -0.0378
      8 C          62.2177   85.6944   10.9801 C.2     1  UNL1        0.3605
      9 N          61.2456   86.6539   11.6000 N.2     1  UNL1       -0.0547
     10 C          60.8310   87.6386   10.5472 C.3     1  UNL1        0.2976
     11 C          62.8863   84.5450   11.6743 C.3     1  UNL1        0.2246
     12 C          63.2879   84.6694   13.1141 C.2     1  UNL1        0.0436
     13 C          63.9565   83.5199   13.8082 C.2     1  UNL1        0.0288
     14 C          64.2235   82.2461   13.0625 C.2     1  UNL1        0.0896
     15 N          63.8219   82.1217   11.6227 N.am    1  UNL1       -0.1770
     16 C          63.1533   83.2712   10.9286 C.2     1  UNL1        0.2627
     17 O          62.7517   83.1468    9.4887 O.2     1  UNL1       -0.2719
     18 N          63.0209   85.9431   13.8599 N.pl3   1  UNL1       -0.3329
     19 H          62.0947   86.2182   14.0485 H       1  UNL1        0.1466
     20 C          64.1652   86.7978   14.3184 C.3     1  UNL1        0.1211
     21 C          63.9046   88.1712   14.8623 C.3     1  UNL1        0.1522
     22 O          63.4191   88.3401   16.2715 O.3     1  UNL1       -0.3783
     23 H          63.3270   87.4691   16.6883 H       1  UNL1        0.2109
     24 C          64.1295   89.3756   13.9971 C.ar    1  UNL1        0.0067
     25 C          65.0963   90.4386   14.4278 C.ar    1  UNL1       -0.0018
     26 C          65.3212   91.6430   13.5625 C.ar    1  UNL1        0.0006
     27 C          64.5794   91.7846   12.2665 C.ar    1  UNL1        0.0114
     28 C          63.6126   90.7217   11.8358 C.ar    1  UNL1        0.0574
     29 CL         62.8708   90.8633   10.5398 Cl      1  UNL1       -0.0823
     30 C          63.3877   89.5172   12.7011 C.ar    1  UNL1        0.0095
     31 N          60.1677   90.0985    6.8379 N.pl3   1  UNL1       -0.3073
     32 C          58.7781   90.5055    6.4464 C.3     1  UNL1        0.0922
     33 C          58.5570   91.3254    5.2099 C.3     1  UNL1        0.0374
     34 C          59.7255   91.7384    4.3650 C.3     1  UNL1        0.0610
     35 C          61.1152   91.3314    4.7565 C.3     1  UNL1        0.0374
     36 C          61.3363   90.5115    5.9929 C.3     1  UNL1        0.0922
     37 N          59.5045   92.5583    3.1286 N.3     1  UNL1       -0.2710
     38 C          58.5762   92.0659    2.0581 C.3     1  UNL1        0.0939
     39 C          58.3552   92.8858    0.8216 C.3     1  UNL1        0.1123
     40 N          59.0624   94.1981    0.6555 N.am    1  UNL1       -0.2612
     41 C          58.8414   95.0180   -0.5809 C.2     1  UNL1        0.3074
     42 O          59.5486   96.3304   -0.7470 O.2     1  UNL1       -0.2523
     43 N          57.9131   94.5256   -1.6513 N.am    1  UNL1       -0.2589
     44 C          57.2059   93.2132   -1.4853 C.3     1  UNL1        0.1270
     45 C          56.2777   92.7207   -2.5557 C.3     1  UNL1        0.1637
     46 O          56.0566   93.5406   -3.7923 O.3     1  UNL1       -0.3501
     47 C          56.7638   94.8530   -3.9583 C.3     1  UNL1        0.1637
     48 C          57.6921   95.3454   -2.8878 C.3     1  UNL1        0.1270
     49 C          59.9906   94.6905    1.7260 C.3     1  UNL1        0.1123
     50 C          60.2117   93.8707    2.9625 C.3     1  UNL1        0.0939
@<TRIPOS>BOND
     1     1     2    1
     2     2     3    2
     3     3     4    1
     4     4    31    1
     5    31    32    1
     6    32    33    1
     7    33    34    1
     8    34    37    1
     9    37    38    1
    10    38    39    1
    11    39    40    1
    12    40    41   am
    13    41    42    2
    14    41    43   am
    15    43    44    1
    16    44    45    1
    17    45    46    1
    18    46    47    1
    19    47    48    1
    20    40    49    1
    21    49    50    1
    22    34    35    1
    23    35    36    1
    24     4     5    2
    25     5     6    1
    26     6     7    2
    27     7     8    1
    28     8    11    1
    29    11    12    1
    30    12    18    1
    31    18    20    1
    32    20    21    1
    33    21    22    1
    34    21    24    1
    35    24    25   ar
    36    25    26   ar
    37    26    27   ar
    38    27    28   ar
    39    28    29    1
    40    28    30   ar
    41    12    13    2
    42    13    14    1
    43    14    15    2
    44    15    16    1
    45    16    17    2
    46     8     9    2
    47     9    10    1
    48    10     2    1
    49    36    31    1
    50    10     6    1
    51    50    37    1
    52    16    11    1
    53    48    43    1
    54    30    24   ar
    55    18    19    1
    56    22    23    1
