@<TRIPOS>MOLECULE
*****
 20 22 0 0 0
SMALL
GASTEIGER

@<TRIPOS>ATOM
      1 C          65.4139   93.0073   11.8359 C.3     1  UNL1        0.1356
      2 C          65.0010   92.2151   13.0408 C.3     1  UNL1        0.0474
      3 C          64.0912   91.1141   12.5821 C.3     1  UNL1        0.0894
      4 BR         63.4443   90.0824   13.4580 Br      1  UNL1       -0.0789
      5 C          63.9419   91.2260   11.0937 C.3     1  UNL1        0.1538
      6 O          64.7593   92.3961   10.6325 O.3     1  UNL1       -0.3516
      7 CL         67.7134   96.8559    7.8483 Cl      1  UNL1       -0.0822
      8 C          67.1385   95.8938    8.8452 C.ar    1  UNL1        0.0585
      9 C          65.9901   96.3117    9.7149 C.ar    1  UNL1        0.0112
     10 C          65.4152   95.3496   10.7118 C.ar    1  UNL1       -0.0003
     11 C          65.9887   93.9695   10.8390 C.ar    1  UNL1        0.0146
     12 C          67.1372   93.5515    9.9693 C.ar    1  UNL1        0.0568
     13 CL         67.7108   92.1713   10.0965 Cl      1  UNL1       -0.0825
     14 C          67.7121   94.5136    8.9724 C.ar    1  UNL1        0.0225
     15 C          66.1886   93.8197   12.8308 C.3     1  UNL1        0.1605
     16 N          67.0160   93.1340   13.8772 N.ar    1  UNL1       -0.2273
     17 C          66.7447   93.1291   15.3525 C.ar    1  UNL1        0.1973
     18 N          67.8212   92.3248   16.0191 N.ar    1  UNL1       -0.2007
     19 C          68.7578   91.8325   14.9558 C.ar    1  UNL1        0.2210
     20 N          68.2602   92.3326   13.6320 N.ar    1  UNL1       -0.1451
@<TRIPOS>BOND
     1     7     8    1
     2     8     9   ar
     3     9    10   ar
     4    10    11   ar
     5    11     1    1
     6     1    15    1
     7    15    16    1
     8    16    17   ar
     9    17    18   ar
    10    18    19   ar
    11    19    20   ar
    12     1     2    1
    13     2     3    1
    14     3     4    1
    15     3     5    1
    16     5     6    1
    17    11    12   ar
    18    12    13    1
    19    12    14   ar
    20    14     8   ar
    21     6     1    1
    22    20    16   ar
@<TRIPOS>MOLECULE
*****
 20 22 0 0 0
SMALL
GASTEIGER

@<TRIPOS>ATOM
      1 C          62.1076   87.2448   10.5041 C.3     1  UNL1        0.1356
      2 C          62.2197   87.7788   11.9013 C.3     1  UNL1        0.0474
      3 C          62.6338   89.2180   11.8155 C.3     1  UNL1        0.0894
      4 BR         62.8637   90.1400   12.9762 Br      1  UNL1       -0.0789
      5 C          62.7775   89.5734   10.3654 C.3     1  UNL1        0.1538
      6 O          62.4523   88.3539    9.5548 O.3     1  UNL1       -0.3516
      7 CL         61.3370   84.0409    5.4900 Cl      1  UNL1       -0.0822
      8 C          61.5296   84.8419    6.7435 C.ar    1  UNL1        0.0585
      9 C          62.8633   84.8515    7.4298 C.ar    1  UNL1        0.0112
     10 C          63.0560   85.6525    8.6834 C.ar    1  UNL1       -0.0003
     11 C          61.9149   86.4438    9.2506 C.ar    1  UNL1        0.0146
     12 C          60.5812   86.4342    8.5642 C.ar    1  UNL1        0.0568
     13 CL         59.4401   87.2255    9.1314 Cl      1  UNL1       -0.0825
     14 C          60.3886   85.6332    7.3107 C.ar    1  UNL1        0.0225
     15 C          61.7225   85.9682   11.1913 C.3     1  UNL1        0.1605
     16 N          62.7340   85.2229   12.0107 N.ar    1  UNL1       -0.2273
     17 C          63.3920   83.9283   11.6350 C.ar    1  UNL1        0.1973
     18 N          64.3298   83.5467   12.7417 N.ar    1  UNL1       -0.2007
     19 C          64.2514   84.6054   13.8015 C.ar    1  UNL1        0.2210
     20 N          63.2652   85.6414   13.3496 N.ar    1  UNL1       -0.1451
@<TRIPOS>BOND
     1     7     8    1
     2     8     9   ar
     3     9    10   ar
     4    10    11   ar
     5    11     1    1
     6     1    15    1
     7    15    16    1
     8    16    17   ar
     9    17    18   ar
    10    18    19   ar
    11    19    20   ar
    12     1     2    1
    13     2     3    1
    14     3     4    1
    15     3     5    1
    16     5     6    1
    17    11    12   ar
    18    12    13    1
    19    12    14   ar
    20    14     8   ar
    21     6     1    1
    22    20    16   ar
@<TRIPOS>MOLECULE
*****
 20 22 0 0 0
SMALL
GASTEIGER

@<TRIPOS>ATOM
      1 C          61.3852   86.9325    9.2194 C.3     1  UNL1        0.1356
      2 C          60.9023   88.2432    8.6728 C.3     1  UNL1        0.0474
      3 C          59.7066   87.9725    7.8082 C.3     1  UNL1        0.0894
      4 BR         58.9073   88.9996    7.0624 Br      1  UNL1       -0.0789
      5 C          59.4507   86.4946    7.8206 C.3     1  UNL1        0.1538
      6 O          60.4881   85.8518    8.6927 O.3     1  UNL1       -0.3516
      7 CL         64.1898   82.3950   11.9663 Cl      1  UNL1       -0.0822
      8 C          63.4886   83.5294   11.2796 C.ar    1  UNL1        0.0585
      9 C          62.5848   84.4358   12.0615 C.ar    1  UNL1        0.0112
     10 C          61.8836   85.5702   11.3747 C.ar    1  UNL1       -0.0003
     11 C          62.0863   85.7981    9.9061 C.ar    1  UNL1        0.0146
     12 C          62.9902   84.8917    9.1242 C.ar    1  UNL1        0.0568
     13 CL         63.1929   85.1196    7.6555 Cl      1  UNL1       -0.0825
     14 C          63.6913   83.7573    9.8110 C.ar    1  UNL1        0.0225
     15 C          62.4289   87.7760    9.8896 C.3     1  UNL1        0.1605
     16 N          62.0781   88.5736   11.1106 N.ar    1  UNL1       -0.2273
     17 C          63.0485   89.1215   12.1147 C.ar    1  UNL1        0.1973
     18 N          62.2654   89.8498   13.1665 N.ar    1  UNL1       -0.2007
     19 C          60.8111   89.7521   12.8125 C.ar    1  UNL1        0.2210
     20 N          60.6953   88.9633   11.5418 N.ar    1  UNL1       -0.1451
@<TRIPOS>BOND
     1     7     8    1
     2     8     9   ar
     3     9    10   ar
     4    10    11   ar
     5    11     1    1
     6     1    15    1
     7    15    16    1
     8    16    17   ar
     9    17    18   ar
    10    18    19   ar
    11    19    20   ar
    12     1     2    1
    13     2     3    1
    14     3     4    1
    15     3     5    1
    16     5     6    1
    17    11    12   ar
    18    12    13    1
    19    12    14   ar
    20    14     8   ar
    21     6     1    1
    22    20    16   ar
@<TRIPOS>MOLECULE
*****
 20 22 0 0 0
SMALL
GASTEIGER

@<TRIPOS>ATOM
      1 C          63.2714   84.1271   12.8170 C.3     1  UNL1        0.1356
      2 C          63.1149   85.5509   13.2625 C.3     1  UNL1        0.0474
      3 C          64.2638   85.8820   14.1683 C.3     1  UNL1        0.0894
      4 BR         64.5041   87.2008   14.8415 Br      1  UNL1       -0.0789
      5 C          65.1303   84.6630   14.2825 C.3     1  UNL1        0.1538
      6 O          64.5169   83.5784   13.4474 O.3     1  UNL1       -0.3516
      7 CL         62.8365   78.6517   10.4023 Cl      1  UNL1       -0.0822
      8 C          62.9452   80.0206   11.0060 C.ar    1  UNL1        0.0585
      9 C          63.5486   81.1433   10.2152 C.ar    1  UNL1        0.0112
     10 C          63.6573   82.5121   10.8189 C.ar    1  UNL1       -0.0003
     11 C          63.1626   82.7583   12.2133 C.ar    1  UNL1        0.0146
     12 C          62.5593   81.6356   13.0042 C.ar    1  UNL1        0.0568
     13 CL         62.0645   81.8817   14.3987 Cl      1  UNL1       -0.0825
     14 C          62.4505   80.2667   12.4005 C.ar    1  UNL1        0.0225
     15 C          62.0030   84.3897   12.0604 C.3     1  UNL1        0.1605
     16 N          61.8859   85.6074   11.1924 N.ar    1  UNL1       -0.2273
     17 C          62.4834   85.7778    9.8271 C.ar    1  UNL1        0.1973
     18 N          62.1175   87.1442    9.3282 N.ar    1  UNL1       -0.2007
     19 C          61.2939   87.8184   10.3851 C.ar    1  UNL1        0.2210
     20 N          61.1507   86.8686   11.5373 N.ar    1  UNL1       -0.1451
@<TRIPOS>BOND
     1     7     8    1
     2     8     9   ar
     3     9    10   ar
     4    10    11   ar
     5    11     1    1
     6     1    15    1
     7    15    16    1
     8    16    17   ar
     9    17    18   ar
    10    18    19   ar
    11    19    20   ar
    12     1     2    1
    13     2     3    1
    14     3     4    1
    15     3     5    1
    16     5     6    1
    17    11    12   ar
    18    12    13    1
    19    12    14   ar
    20    14     8   ar
    21     6     1    1
    22    20    16   ar
@<TRIPOS>MOLECULE
*****
 20 22 0 0 0
SMALL
GASTEIGER

@<TRIPOS>ATOM
      1 C          62.9398   85.0661   12.7355 C.3     1  UNL1        0.1356
      2 C          63.2313   86.5343   12.8324 C.3     1  UNL1        0.0474
      3 C          62.5516   87.2186   11.6836 C.3     1  UNL1        0.0894
      4 BR         62.5787   88.6899   11.3928 Br      1  UNL1       -0.0789
      5 C          61.8400   86.1733   10.8767 C.3     1  UNL1        0.1538
      6 O          62.0800   84.8430   11.5268 O.3     1  UNL1       -0.3516
      7 CL         62.4725   79.1199   13.3870 Cl      1  UNL1       -0.0822
      8 C          62.5893   80.6064   13.2241 C.ar    1  UNL1        0.0585
      9 C          61.8105   81.5227   14.1206 C.ar    1  UNL1        0.0112
     10 C          61.9273   83.0092   13.9578 C.ar    1  UNL1       -0.0003
     11 C          62.8230   83.5795   12.8983 C.ar    1  UNL1        0.0146
     12 C          63.6019   82.6633   12.0018 C.ar    1  UNL1        0.0568
     13 CL         64.4976   83.2336   10.9423 Cl      1  UNL1       -0.0825
     14 C          63.4850   81.1768   12.1647 C.ar    1  UNL1        0.0225
     15 C          63.7753   84.9784   13.9782 C.3     1  UNL1        0.1605
     16 N          63.3023   85.6236   15.2470 N.ar    1  UNL1       -0.2273
     17 C          62.3250   85.0380   16.2228 C.ar    1  UNL1        0.1973
     18 N          62.1423   86.0203   17.3417 N.ar    1  UNL1       -0.2007
     19 C          63.0065   87.2128   17.0574 C.ar    1  UNL1        0.2210
     20 N          63.7235   86.9677   15.7628 N.ar    1  UNL1       -0.1451
@<TRIPOS>BOND
     1     7     8    1
     2     8     9   ar
     3     9    10   ar
     4    10    11   ar
     5    11     1    1
     6     1    15    1
     7    15    16    1
     8    16    17   ar
     9    17    18   ar
    10    18    19   ar
    11    19    20   ar
    12     1     2    1
    13     2     3    1
    14     3     4    1
    15     3     5    1
    16     5     6    1
    17    11    12   ar
    18    12    13    1
    19    12    14   ar
    20    14     8   ar
    21     6     1    1
    22    20    16   ar
@<TRIPOS>MOLECULE
*****
 20 22 0 0 0
SMALL
GASTEIGER

@<TRIPOS>ATOM
      1 C          63.2276   85.8744   12.7868 C.3     1  UNL1        0.1356
      2 C          63.2167   87.3614   12.5905 C.3     1  UNL1        0.0474
      3 C          63.9504   87.9861   13.7401 C.3     1  UNL1        0.0894
      4 BR         64.1796   89.4540   13.9467 Br      1  UNL1       -0.0789
      5 C          64.4147   86.8851   14.6469 C.3     1  UNL1        0.1538
      6 O          63.9680   85.5800   14.0577 O.3     1  UNL1       -0.3516
      7 CL         62.6256   79.9117   12.4966 Cl      1  UNL1       -0.0822
      8 C          62.7761   81.4024   12.5691 C.ar    1  UNL1        0.0585
      9 C          63.4145   82.1478   11.4348 C.ar    1  UNL1        0.0112
     10 C          63.5650   83.6385   11.5074 C.ar    1  UNL1       -0.0003
     11 C          63.0771   84.3837   12.7142 C.ar    1  UNL1        0.0146
     12 C          62.4387   83.6382   13.8485 C.ar    1  UNL1        0.0568
     13 CL         61.9507   84.3835   15.0555 Cl      1  UNL1       -0.0825
     14 C          62.2882   82.1476   13.7760 C.ar    1  UNL1        0.0225
     15 C          62.4557   85.8571   11.5007 C.3     1  UNL1        0.1605
     16 N          61.7305   87.0884   11.0447 N.ar    1  UNL1       -0.2273
     17 C          62.0998   87.9450    9.8701 C.ar    1  UNL1        0.1973
     18 N          61.1060   89.0652    9.7827 N.ar    1  UNL1       -0.2007
     19 C          60.1226   88.9010   10.9034 C.ar    1  UNL1        0.2210
     20 N          60.5085   87.6792   11.6834 N.ar    1  UNL1       -0.1451
@<TRIPOS>BOND
     1     7     8    1
     2     8     9   ar
     3     9    10   ar
     4    10    11   ar
     5    11     1    1
     6     1    15    1
     7    15    16    1
     8    16    17   ar
     9    17    18   ar
    10    18    19   ar
    11    19    20   ar
    12     1     2    1
    13     2     3    1
    14     3     4    1
    15     3     5    1
    16     5     6    1
    17    11    12   ar
    18    12    13    1
    19    12    14   ar
    20    14     8   ar
    21     6     1    1
    22    20    16   ar
@<TRIPOS>MOLECULE
*****
 20 22 0 0 0
SMALL
GASTEIGER

@<TRIPOS>ATOM
      1 C          63.0023   83.9064   12.2011 C.3     1  UNL1        0.1356
      2 C          63.6821   83.1314   13.2907 C.3     1  UNL1        0.0474
      3 C          63.3844   81.6764   13.0796 C.3     1  UNL1        0.0894
      4 BR         63.8659   80.5444   13.9379 Br      1  UNL1       -0.0789
      5 C          62.5206   81.5522   11.8596 C.3     1  UNL1        0.1538
      6 O          62.2844   82.9304   11.3166 O.3     1  UNL1       -0.3516
      7 CL         60.7865   88.0016    8.4170 Cl      1  UNL1       -0.0822
      8 C          61.3404   86.9778    9.3630 C.ar    1  UNL1        0.0585
      9 C          60.9111   86.9746   10.8002 C.ar    1  UNL1        0.0112
     10 C          61.4650   85.9508   11.7462 C.ar    1  UNL1       -0.0003
     11 C          62.4483   84.9302   11.2551 C.ar    1  UNL1        0.0146
     12 C          62.8777   84.9333    9.8179 C.ar    1  UNL1        0.0568
     13 CL         63.8610   83.9126    9.3266 Cl      1  UNL1       -0.0825
     14 C          62.3237   85.9571    8.8718 C.ar    1  UNL1        0.0225
     15 C          63.6043   85.0964   12.8878 C.3     1  UNL1        0.1605
     16 N          63.3748   85.3115   14.3544 N.ar    1  UNL1       -0.2273
     17 C          64.3105   86.0032   15.3011 C.ar    1  UNL1        0.1973
     18 N          63.6833   85.9919   16.6636 N.ar    1  UNL1       -0.2007
     19 C          62.3601   85.2932   16.5591 C.ar    1  UNL1        0.2210
     20 N          62.1694   84.8727   15.1319 N.ar    1  UNL1       -0.1451
@<TRIPOS>BOND
     1     7     8    1
     2     8     9   ar
     3     9    10   ar
     4    10    11   ar
     5    11     1    1
     6     1    15    1
     7    15    16    1
     8    16    17   ar
     9    17    18   ar
    10    18    19   ar
    11    19    20   ar
    12     1     2    1
    13     2     3    1
    14     3     4    1
    15     3     5    1
    16     5     6    1
    17    11    12   ar
    18    12    13    1
    19    12    14   ar
    20    14     8   ar
    21     6     1    1
    22    20    16   ar
@<TRIPOS>MOLECULE
*****
 20 22 0 0 0
SMALL
GASTEIGER

@<TRIPOS>ATOM
      1 C          63.1576   83.3740   12.9941 C.3     1  UNL1        0.1356
      2 C          63.3301   82.8322   11.6061 C.3     1  UNL1        0.0474
      3 C          63.0213   81.3646   11.6397 C.3     1  UNL1        0.0894
      4 BR         63.0677   80.4269   10.4699 Br      1  UNL1       -0.0789
      5 C          62.6580   80.9995   13.0485 C.3     1  UNL1        0.1538
      6 O          62.7422   82.2414   13.8856 O.3     1  UNL1       -0.3516
      7 CL         62.7993   86.6308   18.0205 Cl      1  UNL1       -0.0822
      8 C          62.8888   85.8166   16.7639 C.ar    1  UNL1        0.0585
      9 C          61.6484   85.2234   16.1646 C.ar    1  UNL1        0.0112
     10 C          61.7379   84.4092   14.9080 C.ar    1  UNL1       -0.0003
     11 C          63.0680   84.1882   14.2507 C.ar    1  UNL1        0.0146
     12 C          64.3085   84.7814   14.8501 C.ar    1  UNL1        0.0568
     13 CL         65.6387   84.5604   14.1928 Cl      1  UNL1       -0.0825
     14 C          64.2189   85.5956   16.1067 C.ar    1  UNL1        0.0225
     15 C          63.5542   84.6768   12.3654 C.3     1  UNL1        0.1605
     16 N          62.6063   85.3835   11.4423 N.ar    1  UNL1       -0.2273
     17 C          62.6199   85.3160    9.9439 C.ar    1  UNL1        0.1973
     18 N          61.5003   86.1725    9.4311 N.ar    1  UNL1       -0.2007
     19 C          60.7948   86.7694   10.6126 C.ar    1  UNL1        0.2210
     20 N          61.4783   86.2818   11.8557 N.ar    1  UNL1       -0.1451
@<TRIPOS>BOND
     1     7     8    1
     2     8     9   ar
     3     9    10   ar
     4    10    11   ar
     5    11     1    1
     6     1    15    1
     7    15    16    1
     8    16    17   ar
     9    17    18   ar
    10    18    19   ar
    11    19    20   ar
    12     1     2    1
    13     2     3    1
    14     3     4    1
    15     3     5    1
    16     5     6    1
    17    11    12   ar
    18    12    13    1
    19    12    14   ar
    20    14     8   ar
    21     6     1    1
    22    20    16   ar
@<TRIPOS>MOLECULE
*****
 20 22 0 0 0
SMALL
GASTEIGER

@<TRIPOS>ATOM
      1 C          63.0468   85.6929   12.8415 C.3     1  UNL1        0.1356
      2 C          63.0664   87.1448   12.4654 C.3     1  UNL1        0.0474
      3 C          63.8288   87.8872   13.5227 C.3     1  UNL1        0.0894
      4 BR         64.0932   89.3635   13.5464 Br      1  UNL1       -0.0789
      5 C          64.2802   86.8940   14.5522 C.3     1  UNL1        0.1538
      6 O          63.7969   85.5379   14.1312 O.3     1  UNL1       -0.3516
      7 CL         62.3085   79.7552   13.2868 Cl      1  UNL1       -0.0822
      8 C          62.4931   81.2396   13.1755 C.ar    1  UNL1        0.0585
      9 C          62.0427   82.1370   14.2898 C.ar    1  UNL1        0.0112
     10 C          62.2273   83.6214   14.1785 C.ar    1  UNL1       -0.0003
     11 C          62.8622   84.2085   12.9529 C.ar    1  UNL1        0.0146
     12 C          63.3125   83.3110   11.8385 C.ar    1  UNL1        0.0568
     13 CL         63.9475   83.8980   10.6128 Cl      1  UNL1       -0.0825
     14 C          63.1280   81.8266   11.9499 C.ar    1  UNL1        0.0225
     15 C          62.2580   85.5375   11.5751 C.3     1  UNL1        0.1605
     16 N          61.6105   86.7340   10.9433 N.ar    1  UNL1       -0.2273
     17 C          61.9720   87.3348    9.6173 C.ar    1  UNL1        0.1973
     18 N          61.0726   88.5118    9.3811 N.ar    1  UNL1       -0.2007
     19 C          60.1552   88.6384   10.5611 C.ar    1  UNL1        0.2210
     20 N          60.4876   87.5396   11.5266 N.ar    1  UNL1       -0.1451
@<TRIPOS>BOND
     1     7     8    1
     2     8     9   ar
     3     9    10   ar
     4    10    11   ar
     5    11     1    1
     6     1    15    1
     7    15    16    1
     8    16    17   ar
     9    17    18   ar
    10    18    19   ar
    11    19    20   ar
    12     1     2    1
    13     2     3    1
    14     3     4    1
    15     3     5    1
    16     5     6    1
    17    11    12   ar
    18    12    13    1
    19    12    14   ar
    20    14     8   ar
    21     6     1    1
    22    20    16   ar
