@<TRIPOS>MOLECULE
*****
 40 45 0 0 0
SMALL
GASTEIGER

@<TRIPOS>ATOM
      1 C          65.1817   92.9200   11.9085 C.ar    1  UNL1        0.0841
      2 C          64.3063   91.8331   11.3586 C.ar    1  UNL1        0.0430
      3 N          64.1264   90.7971   12.4283 N.ar    1  UNL1       -0.3271
      4 C          64.8907   91.2436   13.6393 C.ar    1  UNL1        0.1098
      5 C          65.0770   90.6251   14.9930 C.ar    1  UNL1        0.1509
      6 N          65.9155   91.3185   16.0255 N.ar    1  UNL1       -0.2075
      7 C          66.5677   92.6305   15.7043 C.ar    1  UNL1        0.2001
      8 N          66.3814   93.2491   14.3505 N.ar    1  UNL1       -0.2222
      9 C          65.5429   92.5557   13.3180 C.ar    1  UNL1        0.1069
     10 C          63.2899   89.5809   12.1615 C.3     1  UNL1        0.1059
     11 C          62.6333   89.4008   10.8249 C.3     1  UNL1        0.0249
     12 C          62.8132   90.4369    9.7552 C.3     1  UNL1        0.0082
     13 C          63.6497   91.6530   10.0221 C.3     1  UNL1        0.0441
     14 N          64.4248   89.3130   15.3143 N.pl3   1  UNL1       -0.2892
     15 C          63.3480   89.2460   16.3565 C.3     1  UNL1        0.1095
     16 C          62.6959   87.9340   16.6778 C.3     1  UNL1        0.0939
     17 N          63.1204   86.6890   15.9569 N.3     1  UNL1       -0.2695
     18 C          64.1971   86.7560   14.9147 C.3     1  UNL1        0.0939
     19 C          64.8493   88.0680   14.5934 C.3     1  UNL1        0.1095
     20 C          62.4683   85.3769   16.2781 C.3     1  UNL1        0.0769
     21 C          63.2216   84.0956   16.0762 C.3     1  UNL1        0.0437
     22 C          63.1262   83.3676   14.7682 C.ar    1  UNL1       -0.0184
     23 C          62.0767   82.3143   14.5709 C.ar    1  UNL1       -0.0018
     24 C          61.9812   81.5863   13.2629 C.ar    1  UNL1        0.0316
     25 C          62.9354   81.9116   12.1522 C.ar    1  UNL1        0.1674
     26 F          62.8400   81.1836   10.8441 F       1  UNL1       -0.2018
     27 C          63.9850   82.9649   12.3495 C.ar    1  UNL1        0.1671
     28 F          64.9392   83.2903   11.2387 F       1  UNL1       -0.2018
     29 C          64.0804   83.6929   13.6575 C.ar    1  UNL1        0.0277
     30 O          65.9931   94.0740    9.7267 O.2     1  UNL1       -0.2700
     31 C          65.6191   94.1544   11.1772 C.2     1  UNL1        0.2487
     32 N          65.6827   95.4692   11.8962 N.am    1  UNL1       -0.2956
     33 H          65.4373   95.5220   12.8482 H       1  UNL1        0.1501
     34 C          66.1201   96.7037   11.1649 C.3     1  UNL1        0.1360
     35 C          66.1007   96.7336    9.6654 C.ar    1  UNL1        0.0788
     36 C          67.3888   96.6953    8.8977 C.ar    1  UNL1        0.0165
     37 C          67.3694   96.7251    7.3981 C.ar    1  UNL1        0.0029
     38 C          66.0619   96.7933    6.6662 C.ar    1  UNL1        0.0207
     39 C          64.7738   96.8316    7.4338 C.ar    1  UNL1        0.0985
     40 N          64.7932   96.8017    8.9334 N.ar    1  UNL1       -0.2464
@<TRIPOS>BOND
     1    30    31    2
     2    31    32   am
     3    32    34    1
     4    34    35    1
     5    35    36   ar
     6    36    37   ar
     7    37    38   ar
     8    38    39   ar
     9    39    40   ar
    10    31     1    1
    11     1     2   ar
    12     2     3   ar
    13     3     4   ar
    14     4     5   ar
    15     5    14    1
    16    14    15    1
    17    15    16    1
    18    16    17    1
    19    17    20    1
    20    20    21    1
    21    21    22    1
    22    22    23   ar
    23    23    24   ar
    24    24    25   ar
    25    25    26    1
    26    25    27   ar
    27    27    28    1
    28    27    29   ar
    29    17    18    1
    30    18    19    1
    31     5     6   ar
    32     6     7   ar
    33     7     8   ar
    34     8     9   ar
    35     3    10    1
    36    10    11    1
    37    11    12    1
    38    12    13    1
    39    40    35   ar
    40     9     1   ar
    41    13     2    1
    42     9     4   ar
    43    19    14    1
    44    29    22   ar
    45    32    33    1
@<TRIPOS>MOLECULE
*****
 40 45 0 0 0
SMALL
GASTEIGER

@<TRIPOS>ATOM
      1 C          60.0555   88.5650    7.8926 C.ar    1  UNL1        0.0841
      2 C          60.4636   89.0316    9.2585 C.ar    1  UNL1        0.0430
      3 N          61.1895   87.9067    9.9349 N.ar    1  UNL1       -0.3271
      4 C          61.2299   86.7448    8.9871 C.ar    1  UNL1        0.1098
      5 C          61.8144   85.3689    9.1103 C.ar    1  UNL1        0.1509
      6 N          61.6981   84.3998    7.9713 N.ar    1  UNL1       -0.2075
      7 C          60.9973   84.8066    6.7090 C.ar    1  UNL1        0.2001
      8 N          60.4128   86.1825    6.5858 N.ar    1  UNL1       -0.2222
      9 C          60.5291   87.1516    7.7248 C.ar    1  UNL1        0.1069
     10 C          61.7198   88.0856   11.3266 C.3     1  UNL1        0.1059
     11 C          61.5242   89.3895   12.0418 C.3     1  UNL1        0.0249
     12 C          60.7983   90.5145   11.3653 C.3     1  UNL1        0.0082
     13 C          60.2680   90.3355    9.9737 C.3     1  UNL1        0.0441
     14 N          62.5153   84.9620   10.3726 N.pl3   1  UNL1       -0.2892
     15 C          63.7979   84.1874   10.3020 C.3     1  UNL1        0.1095
     16 C          64.4987   83.7806   11.5643 C.3     1  UNL1        0.0939
     17 N          63.9169   84.1482   12.8971 N.3     1  UNL1       -0.2695
     18 C          62.6343   84.9227   12.9676 C.3     1  UNL1        0.0939
     19 C          61.9335   85.3296   11.7053 C.3     1  UNL1        0.1095
     20 C          64.6177   83.7414   14.1594 C.3     1  UNL1        0.0769
     21 C          64.0580   84.1447   15.4914 C.3     1  UNL1        0.0437
     22 C          63.8426   85.5954   15.8062 C.ar    1  UNL1       -0.0184
     23 C          63.0537   85.9904   17.0193 C.ar    1  UNL1       -0.0018
     24 C          62.8383   87.4410   17.3342 C.ar    1  UNL1        0.0316
     25 C          63.4116   88.4966   16.4359 C.ar    1  UNL1        0.1674
     26 F          63.1961   89.9473   16.7509 F       1  UNL1       -0.2018
     27 C          64.2005   88.1016   15.2228 C.ar    1  UNL1        0.1671
     28 F          64.7738   89.1572   14.3245 F       1  UNL1       -0.2018
     29 C          64.4159   86.6509   14.9080 C.ar    1  UNL1        0.0277
     30 O          57.8357   89.1461    6.6740 O.2     1  UNL1       -0.2700
     31 C          59.3054   89.3703    6.8733 C.2     1  UNL1        0.2487
     32 N          60.0250   90.3998    6.0535 N.am    1  UNL1       -0.2956
     33 H          60.9896   90.5470    6.1843 H       1  UNL1        0.1501
     34 C          59.2749   91.2052    5.0342 C.3     1  UNL1        0.1360
     35 C          60.0211   91.9261    3.9510 C.ar    1  UNL1        0.0788
     36 C          61.4897   91.6852    3.7637 C.ar    1  UNL1        0.0165
     37 C          62.2358   92.4062    2.6804 C.ar    1  UNL1        0.0029
     38 C          61.5134   93.3681    1.7844 C.ar    1  UNL1        0.0207
     39 C          60.0448   93.6090    1.9717 C.ar    1  UNL1        0.0985
     40 N          59.2986   92.8880    3.0550 N.ar    1  UNL1       -0.2464
@<TRIPOS>BOND
     1    30    31    2
     2    31    32   am
     3    32    34    1
     4    34    35    1
     5    35    36   ar
     6    36    37   ar
     7    37    38   ar
     8    38    39   ar
     9    39    40   ar
    10    31     1    1
    11     1     2   ar
    12     2     3   ar
    13     3     4   ar
    14     4     5   ar
    15     5    14    1
    16    14    15    1
    17    15    16    1
    18    16    17    1
    19    17    20    1
    20    20    21    1
    21    21    22    1
    22    22    23   ar
    23    23    24   ar
    24    24    25   ar
    25    25    26    1
    26    25    27   ar
    27    27    28    1
    28    27    29   ar
    29    17    18    1
    30    18    19    1
    31     5     6   ar
    32     6     7   ar
    33     7     8   ar
    34     8     9   ar
    35     3    10    1
    36    10    11    1
    37    11    12    1
    38    12    13    1
    39    40    35   ar
    40     9     1   ar
    41    13     2    1
    42     9     4   ar
    43    19    14    1
    44    29    22   ar
    45    32    33    1
@<TRIPOS>MOLECULE
*****
 40 45 0 0 0
SMALL
GASTEIGER

@<TRIPOS>ATOM
      1 C          60.1138   88.6324    8.0877 C.ar    1  UNL1        0.0841
      2 C          60.7789   87.2907    8.0018 C.ar    1  UNL1        0.0430
      3 N          61.4253   87.0082    9.3256 N.ar    1  UNL1       -0.3271
      4 C          61.1597   88.1754   10.2295 C.ar    1  UNL1        0.1098
      5 C          61.5512   88.4539   11.6505 C.ar    1  UNL1        0.1509
      6 N          61.1321   89.7362   12.3064 N.ar    1  UNL1       -0.2075
      7 C          60.3215   90.7400   11.5413 C.ar    1  UNL1        0.2001
      8 N          59.9301   90.4615   10.1204 N.ar    1  UNL1       -0.2222
      9 C          60.3491   89.1792    9.4645 C.ar    1  UNL1        0.1069
     10 C          62.1723   85.7247    9.5369 C.3     1  UNL1        0.1059
     11 C          62.2728   84.7237    8.4243 C.3     1  UNL1        0.0249
     12 C          61.6265   85.0061    7.1005 C.3     1  UNL1        0.0082
     13 C          60.8795   86.2896    6.8893 C.3     1  UNL1        0.0441
     14 N          62.3618   87.4500   12.4157 N.pl3   1  UNL1       -0.2892
     15 C          61.9871   85.9981   12.3780 C.3     1  UNL1        0.1095
     16 C          62.7977   84.9943   13.1431 C.3     1  UNL1        0.0939
     17 N          63.9828   85.4426   13.9459 N.3     1  UNL1       -0.2695
     18 C          64.3574   86.8945   13.9836 C.3     1  UNL1        0.0939
     19 C          63.5469   87.8983   13.2184 C.3     1  UNL1        0.1095
     20 C          64.7934   84.4388   14.7110 C.3     1  UNL1        0.0769
     21 C          64.3468   83.0083   14.7780 C.3     1  UNL1        0.0437
     22 C          63.9529   82.2861   13.5237 C.ar    1  UNL1       -0.0184
     23 C          63.0617   81.0820   13.6000 C.ar    1  UNL1       -0.0018
     24 C          62.6678   80.3598   12.3459 C.ar    1  UNL1        0.0316
     25 C          63.1651   80.8417   11.0152 C.ar    1  UNL1        0.1674
     26 F          62.7711   80.1194    9.7609 F       1  UNL1       -0.2018
     27 C          64.0562   82.0458   10.9389 C.ar    1  UNL1        0.1671
     28 F          64.5535   82.5277    9.6083 F       1  UNL1       -0.2018
     29 C          64.4502   82.7680   12.1932 C.ar    1  UNL1        0.0277
     30 O          57.9314   88.9052    6.7045 O.2     1  UNL1       -0.2700
     31 C          59.3479   89.3086    6.9894 C.2     1  UNL1        0.2487
     32 N          59.9982   90.3882    6.1761 N.am    1  UNL1       -0.2956
     33 H          60.9278   90.6529    6.3631 H       1  UNL1        0.1501
     34 C          59.2322   91.0644    5.0779 C.3     1  UNL1        0.1360
     35 C          59.9644   91.8106    4.0023 C.ar    1  UNL1        0.0788
     36 C          61.4434   91.6252    3.8345 C.ar    1  UNL1        0.0165
     37 C          62.1756   92.3715    2.7589 C.ar    1  UNL1        0.0029
     38 C          61.4289   93.3032    1.8511 C.ar    1  UNL1        0.0207
     39 C          59.9499   93.4886    2.0188 C.ar    1  UNL1        0.0985
     40 N          59.2177   92.7423    3.0944 N.ar    1  UNL1       -0.2464
@<TRIPOS>BOND
     1    30    31    2
     2    31    32   am
     3    32    34    1
     4    34    35    1
     5    35    36   ar
     6    36    37   ar
     7    37    38   ar
     8    38    39   ar
     9    39    40   ar
    10    31     1    1
    11     1     2   ar
    12     2     3   ar
    13     3     4   ar
    14     4     5   ar
    15     5    14    1
    16    14    15    1
    17    15    16    1
    18    16    17    1
    19    17    20    1
    20    20    21    1
    21    21    22    1
    22    22    23   ar
    23    23    24   ar
    24    24    25   ar
    25    25    26    1
    26    25    27   ar
    27    27    28    1
    28    27    29   ar
    29    17    18    1
    30    18    19    1
    31     5     6   ar
    32     6     7   ar
    33     7     8   ar
    34     8     9   ar
    35     3    10    1
    36    10    11    1
    37    11    12    1
    38    12    13    1
    39    40    35   ar
    40     9     1   ar
    41    13     2    1
    42     9     4   ar
    43    19    14    1
    44    29    22   ar
    45    32    33    1
