@<TRIPOS>MOLECULE
*****
 33 36 0 0 0
SMALL
GASTEIGER

@<TRIPOS>ATOM
      1 C          62.1616   86.7949   11.3381 C.ar    1  UNL1        0.0522
      2 C          63.1712   87.7495   11.9032 C.ar    1  UNL1        0.0167
      3 C          62.9669   89.2287   11.7604 C.ar    1  UNL1        0.0505
      4 C          61.7529   89.7531   11.0525 C.ar    1  UNL1        0.0170
      5 C          60.7433   88.7985   10.4873 C.ar    1  UNL1        0.0307
      6 C          60.9477   87.3193   10.6302 C.ar    1  UNL1        0.1401
      7 F          59.9381   86.3647   10.0650 F       1  UNL1       -0.2044
      8 C          62.2530   85.4202    9.9887 C.3     1  UNL1        0.0601
      9 C          62.3660   85.3157   11.4808 C.3     1  UNL1        0.2163
     10 C          62.5311   83.8728   11.1053 C.3     1  UNL1        0.1614
     11 N          62.7382   82.8392   12.1723 N.ar    1  UNL1       -0.2929
     12 C          62.9296   81.3529   12.1063 C.ar    1  UNL1        0.1503
     13 C          63.0900   80.8435   13.5080 C.ar    1  UNL1        0.1285
     14 N          62.9977   82.0149   14.4403 N.ar    1  UNL1       -0.2180
     15 C          62.7803   83.2483   13.6148 C.ar    1  UNL1        0.2279
     16 C          62.6152   84.6912   13.9903 C.2     1  UNL1        0.3476
     17 N          62.6573   85.1003   15.4328 N.pl3   1  UNL1       -0.2439
     18 N          62.4081   85.7248   12.9232 N.2     1  UNL1       -0.0653
     19 H          62.7932   84.4219   16.1332 H       1  UNL1        0.2885
     20 H          62.5489   86.0473   15.6792 H       1  UNL1        0.2885
     21 C          62.9560   80.5219   10.8578 C.1     1  UNL1        0.1196
     22 N          62.9824   79.6910    9.6092 N.1     1  UNL1       -0.1893
     23 N          63.9765   90.1832   12.3255 N.am    1  UNL1       -0.2791
     24 C          64.2474   90.2020   13.8008 C.2     1  UNL1        0.2672
     25 O          63.5087   89.2661   14.7109 O.2     1  UNL1       -0.2682
     26 H          64.4613   90.7975   11.7282 H       1  UNL1        0.1552
     27 C          65.2571   91.1566   14.3659 C.ar    1  UNL1        0.1348
     28 C          66.5063   91.4690   13.5968 C.ar    1  UNL1        0.0246
     29 C          67.5160   92.4236   14.1619 C.ar    1  UNL1        0.0147
     30 C          67.2763   93.0658   15.4961 C.ar    1  UNL1        0.0768
     31 CL         68.2859   94.0204   16.0612 Cl      1  UNL1       -0.0806
     32 C          66.0269   92.7533   16.2652 C.ar    1  UNL1        0.1103
     33 N          65.0173   91.7987   15.7002 N.ar    1  UNL1       -0.2384
@<TRIPOS>BOND
     1     9     8    1
     2     9     1    1
     3     1     2   ar
     4     2     3   ar
     5     3    23    1
     6    23    24   am
     7    24    25    2
     8    24    27    1
     9    27    28   ar
    10    28    29   ar
    11    29    30   ar
    12    30    31    1
    13    30    32   ar
    14    32    33   ar
    15     3     4   ar
    16     4     5   ar
    17     5     6   ar
    18     6     7    1
    19     9    10    1
    20    10    11    1
    21    11    12   ar
    22    12    21    1
    23    21    22    3
    24    12    13   ar
    25    13    14   ar
    26    14    15   ar
    27    15    16    1
    28    16    17    1
    29    16    18    2
    30    18     9    1
    31     6     1   ar
    32    15    11   ar
    33    33    27   ar
    34    23    26    1
    35    17    19    1
    36    17    20    1
@<TRIPOS>MOLECULE
*****
 33 36 0 0 0
SMALL
GASTEIGER

@<TRIPOS>ATOM
      1 C          62.1080   89.4426   11.1123 C.ar    1  UNL1        0.0522
      2 C          62.2893   87.9798   11.3904 C.ar    1  UNL1        0.0167
      3 C          61.2517   86.9959   10.9371 C.ar    1  UNL1        0.0505
      4 C          60.0328   87.4750   10.2057 C.ar    1  UNL1        0.0170
      5 C          59.8515   88.9378    9.9276 C.ar    1  UNL1        0.0307
      6 C          60.8892   89.9216   10.3809 C.ar    1  UNL1        0.1401
      7 F          60.7079   91.3844   10.1028 F       1  UNL1       -0.2044
      8 C          63.1534   90.7006   10.0908 C.3     1  UNL1        0.0601
      9 C          63.1456   90.4265   11.5656 C.3     1  UNL1        0.2163
     10 C          64.1859   91.5056   11.5066 C.3     1  UNL1        0.1614
     11 N          64.8581   91.9689   12.7650 N.ar    1  UNL1       -0.2929
     12 C          65.9121   93.0060   13.0165 C.ar    1  UNL1        0.1503
     13 C          66.1954   93.0312   14.4893 C.ar    1  UNL1        0.1285
     14 N          65.3165   92.0096   15.1480 N.ar    1  UNL1       -0.2180
     15 C          64.4900   91.3530   14.0823 C.ar    1  UNL1        0.2279
     16 C          63.4497   90.2740   14.1412 C.2     1  UNL1        0.3476
     17 N          63.0816   89.6582   15.4585 N.pl3   1  UNL1       -0.2439
     18 N          62.7775   89.8107   12.8828 N.2     1  UNL1       -0.0653
     19 H          63.5228   89.9622   16.2844 H       1  UNL1        0.2885
     20 H          62.3989   88.9499   15.4971 H       1  UNL1        0.2885
     21 C          66.5677   93.8669   11.9776 C.1     1  UNL1        0.1196
     22 N          67.2232   94.7277   10.9388 N.1     1  UNL1       -0.1893
     23 N          61.4330   85.5332   11.2152 N.am    1  UNL1       -0.2791
     24 C          62.3373   85.0873   12.3258 C.2     1  UNL1        0.2672
     25 O          63.0603   86.1042   13.1583 O.2     1  UNL1       -0.2682
     26 H          60.9585   84.8657   10.6688 H       1  UNL1        0.1552
     27 C          62.5186   83.6244   12.6038 C.ar    1  UNL1        0.1348
     28 C          62.9194   82.6947   11.4972 C.ar    1  UNL1        0.0246
     29 C          63.1007   81.2319   11.7752 C.ar    1  UNL1        0.0147
     30 C          62.8812   80.6989   13.1600 C.ar    1  UNL1        0.0768
     31 CL         63.0625   79.2360   13.4381 Cl      1  UNL1       -0.0806
     32 C          62.4804   81.6287   14.2667 C.ar    1  UNL1        0.1103
     33 N          62.2991   83.0915   13.9887 N.ar    1  UNL1       -0.2384
@<TRIPOS>BOND
     1     9     8    1
     2     9     1    1
     3     1     2   ar
     4     2     3   ar
     5     3    23    1
     6    23    24   am
     7    24    25    2
     8    24    27    1
     9    27    28   ar
    10    28    29   ar
    11    29    30   ar
    12    30    31    1
    13    30    32   ar
    14    32    33   ar
    15     3     4   ar
    16     4     5   ar
    17     5     6   ar
    18     6     7    1
    19     9    10    1
    20    10    11    1
    21    11    12   ar
    22    12    21    1
    23    21    22    3
    24    12    13   ar
    25    13    14   ar
    26    14    15   ar
    27    15    16    1
    28    16    17    1
    29    16    18    2
    30    18     9    1
    31     6     1   ar
    32    15    11   ar
    33    33    27   ar
    34    23    26    1
    35    17    19    1
    36    17    20    1
@<TRIPOS>MOLECULE
*****
 33 36 0 0 0
SMALL
GASTEIGER

@<TRIPOS>ATOM
      1 C          63.9210   88.7101   14.2127 C.ar    1  UNL1        0.0522
      2 C          64.2797   89.7370   13.1800 C.ar    1  UNL1        0.0167
      3 C          64.4391   91.1750   13.5760 C.ar    1  UNL1        0.0505
      4 C          64.2396   91.5860   15.0047 C.ar    1  UNL1        0.0170
      5 C          63.8808   90.5590   16.0375 C.ar    1  UNL1        0.0307
      6 C          63.7215   89.1210   15.6414 C.ar    1  UNL1        0.1401
      7 F          63.3627   88.0940   16.6742 F       1  UNL1       -0.2044
      8 C          64.4658   87.1039   15.1306 C.3     1  UNL1        0.0601
      9 C          63.7617   87.2720   13.8168 C.3     1  UNL1        0.2163
     10 C          63.8469   85.7756   13.8772 C.3     1  UNL1        0.1614
     11 N          63.2834   84.9467   12.7612 N.ar    1  UNL1       -0.2929
     12 C          63.2213   83.4636   12.5451 C.ar    1  UNL1        0.1503
     13 C          62.5341   83.2145   11.2353 C.ar    1  UNL1        0.1285
     14 N          62.1716   84.5436   10.6418 N.ar    1  UNL1       -0.2180
     15 C          62.6347   85.6141   11.5849 C.ar    1  UNL1        0.2279
     16 C          62.5495   87.1105   11.5246 C.2     1  UNL1        0.3476
     17 N          61.9007   87.7779   10.3483 N.pl3   1  UNL1       -0.2439
     18 N          63.1130   87.9394   12.6405 N.2     1  UNL1       -0.0653
     19 H          61.5309   87.2339    9.6158 H       1  UNL1        0.2885
     20 H          61.8448   88.7601   10.3087 H       1  UNL1        0.2885
     21 C          63.7529   82.4140   13.4755 C.1     1  UNL1        0.1196
     22 N          64.2846   81.3644   14.4059 N.1     1  UNL1       -0.1893
     23 N          64.7978   92.2020   12.5432 N.am    1  UNL1       -0.2791
     24 C          66.2333   92.5809   12.3293 C.2     1  UNL1        0.2672
     25 O          67.3101   91.9328   13.1481 O.2     1  UNL1       -0.2682
     26 H          64.0911   92.6273   12.0058 H       1  UNL1        0.1552
     27 C          66.5921   93.6079   11.2964 C.ar    1  UNL1        0.1348
     28 C          67.2861   93.1910   10.0338 C.ar    1  UNL1        0.0246
     29 C          67.6449   94.2180    9.0010 C.ar    1  UNL1        0.0147
     30 C          67.3095   95.6618    9.2309 C.ar    1  UNL1        0.0768
     31 CL         67.6682   96.6888    8.1981 Cl      1  UNL1       -0.0806
     32 C          66.6154   96.0786   10.4937 C.ar    1  UNL1        0.1103
     33 N          66.2566   95.0517   11.5265 N.ar    1  UNL1       -0.2384
@<TRIPOS>BOND
     1     9     8    1
     2     9     1    1
     3     1     2   ar
     4     2     3   ar
     5     3    23    1
     6    23    24   am
     7    24    25    2
     8    24    27    1
     9    27    28   ar
    10    28    29   ar
    11    29    30   ar
    12    30    31    1
    13    30    32   ar
    14    32    33   ar
    15     3     4   ar
    16     4     5   ar
    17     5     6   ar
    18     6     7    1
    19     9    10    1
    20    10    11    1
    21    11    12   ar
    22    12    21    1
    23    21    22    3
    24    12    13   ar
    25    13    14   ar
    26    14    15   ar
    27    15    16    1
    28    16    17    1
    29    16    18    2
    30    18     9    1
    31     6     1   ar
    32    15    11   ar
    33    33    27   ar
    34    23    26    1
    35    17    19    1
    36    17    20    1
@<TRIPOS>MOLECULE
*****
 33 36 0 0 0
SMALL
GASTEIGER

@<TRIPOS>ATOM
      1 C          61.9295   88.2406   11.1257 C.ar    1  UNL1        0.0522
      2 C          62.8936   89.2798   10.6352 C.ar    1  UNL1        0.0167
      3 C          62.4222   90.6817   10.3852 C.ar    1  UNL1        0.0505
      4 C          60.9867   91.0444   10.6258 C.ar    1  UNL1        0.0170
      5 C          60.0226   90.0051   11.1163 C.ar    1  UNL1        0.0307
      6 C          60.4941   88.6032   11.3662 C.ar    1  UNL1        0.1401
      7 F          59.5300   87.5640   11.8568 F       1  UNL1       -0.2044
      8 C          61.7168   86.6517   10.0538 C.3     1  UNL1        0.0601
      9 C          62.4009   86.8387   11.3757 C.3     1  UNL1        0.2163
     10 C          62.6346   85.3718   11.1665 C.3     1  UNL1        0.1614
     11 N          63.3887   84.5788   12.1924 N.ar    1  UNL1       -0.2929
     12 C          63.7704   83.1297   12.2592 C.ar    1  UNL1        0.1503
     13 C          64.5266   82.9079   13.5355 C.ar    1  UNL1        0.1285
     14 N          64.6123   84.2200   14.2575 N.ar    1  UNL1       -0.2180
     15 C          63.9090   85.2526   13.4274 C.ar    1  UNL1        0.2279
     16 C          63.6753   86.7194   13.6365 C.2     1  UNL1        0.3476
     17 N          64.1956   87.3933   14.8715 N.pl3   1  UNL1       -0.2439
     18 N          62.9212   87.5124   12.6106 N.2     1  UNL1       -0.0653
     19 H          64.6905   86.8728   15.5448 H       1  UNL1        0.2885
     20 H          64.0421   88.3560   15.0087 H       1  UNL1        0.2885
     21 C          63.4518   82.0857   11.2304 C.1     1  UNL1        0.1196
     22 N          63.1331   81.0416   10.2015 N.1     1  UNL1       -0.1893
     23 N          63.3863   91.7209    9.8947 N.am    1  UNL1       -0.2791
     24 C          64.4118   92.2927   10.8281 C.2     1  UNL1        0.2672
     25 O          64.4733   91.8254   12.2521 O.2     1  UNL1       -0.2682
     26 H          63.3460   92.0276    8.9601 H       1  UNL1        0.1552
     27 C          65.3760   93.3319   10.3376 C.ar    1  UNL1        0.1348
     28 C          66.7280   92.9221    9.8337 C.ar    1  UNL1        0.0246
     29 C          67.6921   93.9613    9.3431 C.ar    1  UNL1        0.0147
     30 C          67.3041   95.4102    9.3565 C.ar    1  UNL1        0.0768
     31 CL         68.2682   96.4494    8.8659 Cl      1  UNL1       -0.0806
     32 C          65.9520   95.8199    9.8604 C.ar    1  UNL1        0.1103
     33 N          64.9879   94.7808   10.3509 N.ar    1  UNL1       -0.2384
@<TRIPOS>BOND
     1     9     8    1
     2     9     1    1
     3     1     2   ar
     4     2     3   ar
     5     3    23    1
     6    23    24   am
     7    24    25    2
     8    24    27    1
     9    27    28   ar
    10    28    29   ar
    11    29    30   ar
    12    30    31    1
    13    30    32   ar
    14    32    33   ar
    15     3     4   ar
    16     4     5   ar
    17     5     6   ar
    18     6     7    1
    19     9    10    1
    20    10    11    1
    21    11    12   ar
    22    12    21    1
    23    21    22    3
    24    12    13   ar
    25    13    14   ar
    26    14    15   ar
    27    15    16    1
    28    16    17    1
    29    16    18    2
    30    18     9    1
    31     6     1   ar
    32    15    11   ar
    33    33    27   ar
    34    23    26    1
    35    17    19    1
    36    17    20    1
@<TRIPOS>MOLECULE
*****
 33 36 0 0 0
SMALL
GASTEIGER

@<TRIPOS>ATOM
      1 C          62.8389   89.5601   11.5408 C.ar    1  UNL1        0.0522
      2 C          62.7973   88.0780   11.7673 C.ar    1  UNL1        0.0167
      3 C          62.0255   87.1974   10.8297 C.ar    1  UNL1        0.0505
      4 C          61.2955   87.7991    9.6656 C.ar    1  UNL1        0.0170
      5 C          61.3372   89.2813    9.4391 C.ar    1  UNL1        0.0307
      6 C          62.1090   90.1618   10.3768 C.ar    1  UNL1        0.1401
      7 F          62.1507   91.6441   10.1503 F       1  UNL1       -0.2044
      8 C          62.8572   89.6030   13.4687 C.3     1  UNL1        0.0601
      9 C          63.6107   90.4407   12.4784 C.3     1  UNL1        0.2163
     10 C          64.1207   91.0303   13.7600 C.3     1  UNL1        0.1614
     11 N          65.1161   92.1519   13.7257 N.ar    1  UNL1       -0.2929
     12 C          65.7928   92.9270   14.8171 C.ar    1  UNL1        0.1503
     13 C          66.6964   93.9381   14.1758 C.ar    1  UNL1        0.1285
     14 N          66.5782   93.7877   12.6881 N.ar    1  UNL1       -0.2180
     15 C          65.6016   92.6838   12.4098 C.ar    1  UNL1        0.2279
     16 C          65.0916   92.0942   11.1284 C.2     1  UNL1        0.3476
     17 N          65.5770   92.6261    9.8125 N.pl3   1  UNL1       -0.2439
     18 N          64.0961   90.9727   11.1627 N.2     1  UNL1       -0.0653
     19 H          66.2304   93.3622    9.7900 H       1  UNL1        0.2885
     20 H          65.2423   92.2391    8.9714 H       1  UNL1        0.2885
     21 C          65.5997   92.7264   16.2911 C.1     1  UNL1        0.1196
     22 N          65.4066   92.5258   17.7650 N.1     1  UNL1       -0.1893
     23 N          61.9839   85.7152   11.0562 N.am    1  UNL1       -0.2791
     24 C          62.6572   85.1207   12.2575 C.2     1  UNL1        0.2672
     25 O          63.3723   86.0085   13.2324 O.2     1  UNL1       -0.2682
     26 H          61.5145   85.1325   10.4163 H       1  UNL1        0.1552
     27 C          62.6155   83.6385   12.4840 C.ar    1  UNL1        0.1348
     28 C          62.2444   83.0960   13.8322 C.ar    1  UNL1        0.0246
     29 C          62.2027   81.6138   14.0587 C.ar    1  UNL1        0.0147
     30 C          62.5321   80.6741   12.9369 C.ar    1  UNL1        0.0768
     31 CL         62.4904   79.1919   13.1633 Cl      1  UNL1       -0.0806
     32 C          62.9033   81.2167   11.5886 C.ar    1  UNL1        0.1103
     33 N          62.9450   82.6989   11.3621 N.ar    1  UNL1       -0.2384
@<TRIPOS>BOND
     1     9     8    1
     2     9     1    1
     3     1     2   ar
     4     2     3   ar
     5     3    23    1
     6    23    24   am
     7    24    25    2
     8    24    27    1
     9    27    28   ar
    10    28    29   ar
    11    29    30   ar
    12    30    31    1
    13    30    32   ar
    14    32    33   ar
    15     3     4   ar
    16     4     5   ar
    17     5     6   ar
    18     6     7    1
    19     9    10    1
    20    10    11    1
    21    11    12   ar
    22    12    21    1
    23    21    22    3
    24    12    13   ar
    25    13    14   ar
    26    14    15   ar
    27    15    16    1
    28    16    17    1
    29    16    18    2
    30    18     9    1
    31     6     1   ar
    32    15    11   ar
    33    33    27   ar
    34    23    26    1
    35    17    19    1
    36    17    20    1
@<TRIPOS>MOLECULE
*****
 33 36 0 0 0
SMALL
GASTEIGER

@<TRIPOS>ATOM
      1 C          63.9572   88.8230   14.6320 C.ar    1  UNL1        0.0522
      2 C          64.6563   89.8688   13.8151 C.ar    1  UNL1        0.0167
      3 C          64.7905   91.2667   14.3423 C.ar    1  UNL1        0.0505
      4 C          64.2254   91.6187   15.6865 C.ar    1  UNL1        0.0170
      5 C          63.5262   90.5728   16.5035 C.ar    1  UNL1        0.0307
      6 C          63.3922   89.1749   15.9761 C.ar    1  UNL1        0.1401
      7 F          62.6931   88.1290   16.7930 F       1  UNL1       -0.2044
      8 C          63.7172   88.1980   12.8235 C.3     1  UNL1        0.0601
      9 C          63.8231   87.4251   14.1047 C.3     1  UNL1        0.2163
     10 C          63.6522   86.2957   13.1324 C.3     1  UNL1        0.1614
     11 N          63.6338   84.8788   13.6245 N.ar    1  UNL1       -0.2929
     12 C          63.4827   83.5695   12.9083 C.ar    1  UNL1        0.1503
     13 C          63.5418   82.4729   13.9300 C.ar    1  UNL1        0.1285
     14 N          63.7294   83.1044   15.2776 N.ar    1  UNL1       -0.2180
     15 C          63.7863   84.5914   15.0888 C.ar    1  UNL1        0.2279
     16 C          63.9572   85.7208   16.0610 C.2     1  UNL1        0.3476
     17 N          64.1096   85.4333   17.5253 N.pl3   1  UNL1       -0.2439
     18 N          63.9756   87.1376   15.5689 N.2     1  UNL1       -0.0653
     19 H          64.0975   84.5034   17.8482 H       1  UNL1        0.2885
     20 H          64.2218   86.1746   18.1634 H       1  UNL1        0.2885
     21 C          63.3039   83.3886   11.4300 C.1     1  UNL1        0.1196
     22 N          63.1251   83.2077    9.9518 N.1     1  UNL1       -0.1893
     23 N          65.4896   92.3126   13.5254 N.am    1  UNL1       -0.2791
     24 C          65.1576   92.4747   12.0716 C.2     1  UNL1        0.2672
     25 O          64.1264   91.5909   11.4347 O.2     1  UNL1       -0.2682
     26 H          66.1664   92.8926   13.9434 H       1  UNL1        0.1552
     27 C          65.8568   93.5206   11.2547 C.ar    1  UNL1        0.1348
     28 C          66.6464   93.1221   10.0433 C.ar    1  UNL1        0.0246
     29 C          67.3456   94.1680    9.2264 C.ar    1  UNL1        0.0147
     30 C          67.2551   95.6123    9.6209 C.ar    1  UNL1        0.0768
     31 CL         67.9542   96.6582    8.8040 Cl      1  UNL1       -0.0806
     32 C          66.4654   96.0107   10.8324 C.ar    1  UNL1        0.1103
     33 N          65.7662   94.9649   11.6493 N.ar    1  UNL1       -0.2384
@<TRIPOS>BOND
     1     9     8    1
     2     9     1    1
     3     1     2   ar
     4     2     3   ar
     5     3    23    1
     6    23    24   am
     7    24    25    2
     8    24    27    1
     9    27    28   ar
    10    28    29   ar
    11    29    30   ar
    12    30    31    1
    13    30    32   ar
    14    32    33   ar
    15     3     4   ar
    16     4     5   ar
    17     5     6   ar
    18     6     7    1
    19     9    10    1
    20    10    11    1
    21    11    12   ar
    22    12    21    1
    23    21    22    3
    24    12    13   ar
    25    13    14   ar
    26    14    15   ar
    27    15    16    1
    28    16    17    1
    29    16    18    2
    30    18     9    1
    31     6     1   ar
    32    15    11   ar
    33    33    27   ar
    34    23    26    1
    35    17    19    1
    36    17    20    1
@<TRIPOS>MOLECULE
*****
 33 36 0 0 0
SMALL
GASTEIGER

@<TRIPOS>ATOM
      1 C          63.0544   86.5825   15.9740 C.ar    1  UNL1        0.0522
      2 C          63.6860   87.6041   15.0756 C.ar    1  UNL1        0.0167
      3 C          63.9534   88.9890   15.5862 C.ar    1  UNL1        0.0505
      4 C          63.5892   89.3520   16.9954 C.ar    1  UNL1        0.0170
      5 C          62.9576   88.3302   17.8938 C.ar    1  UNL1        0.0307
      6 C          62.6902   86.9454   17.3830 C.ar    1  UNL1        0.1401
      7 F          62.0586   85.9236   18.2814 F       1  UNL1       -0.2044
      8 C          61.4279   85.5466   15.9935 C.3     1  UNL1        0.0601
      9 C          62.7870   85.1976   15.4633 C.3     1  UNL1        0.2163
     10 C          62.0474   83.9340   15.1368 C.3     1  UNL1        0.1614
     11 N          62.7599   82.8023   14.4574 N.ar    1  UNL1       -0.2929
     12 C          62.2964   81.4463   14.0141 C.ar    1  UNL1        0.1503
     13 C          63.4619   80.7402   13.3872 C.ar    1  UNL1        0.1285
     14 N          64.6457   81.6597   13.4431 N.ar    1  UNL1       -0.2180
     15 C          64.2119   82.9342   14.1045 C.ar    1  UNL1        0.2279
     16 C          64.9513   84.1977   14.4310 C.2     1  UNL1        0.3476
     17 N          66.4032   84.3296   14.0781 N.pl3   1  UNL1       -0.2439
     18 N          64.2388   85.3294   15.1104 N.2     1  UNL1       -0.0653
     19 H          66.8708   83.5868   13.6321 H       1  UNL1        0.2885
     20 H          66.8885   85.1589   14.2924 H       1  UNL1        0.2885
     21 C          60.9107   80.8936   14.1703 C.1     1  UNL1        0.1196
     22 N          59.5251   80.3408   14.3264 N.1     1  UNL1       -0.1893
     23 N          64.5850   90.0107   14.6878 N.am    1  UNL1       -0.2791
     24 C          63.8253   90.5461   13.5104 C.2     1  UNL1        0.2672
     25 O          62.4341   90.0598   13.2314 O.2     1  UNL1       -0.2682
     26 H          65.4981   90.3299   14.8710 H       1  UNL1        0.1552
     27 C          64.4570   91.5679   12.6120 C.ar    1  UNL1        0.1348
     28 C          64.1503   91.5674   11.1437 C.ar    1  UNL1        0.0246
     29 C          64.7820   92.5891   10.2453 C.ar    1  UNL1        0.0147
     30 C          65.7202   93.6113   10.8152 C.ar    1  UNL1        0.0768
     31 CL         66.3519   94.6330    9.9168 Cl      1  UNL1       -0.0806
     32 C          66.0268   93.6117   12.2836 C.ar    1  UNL1        0.1103
     33 N          65.3953   92.5900   13.1820 N.ar    1  UNL1       -0.2384
@<TRIPOS>BOND
     1     9     8    1
     2     9     1    1
     3     1     2   ar
     4     2     3   ar
     5     3    23    1
     6    23    24   am
     7    24    25    2
     8    24    27    1
     9    27    28   ar
    10    28    29   ar
    11    29    30   ar
    12    30    31    1
    13    30    32   ar
    14    32    33   ar
    15     3     4   ar
    16     4     5   ar
    17     5     6   ar
    18     6     7    1
    19     9    10    1
    20    10    11    1
    21    11    12   ar
    22    12    21    1
    23    21    22    3
    24    12    13   ar
    25    13    14   ar
    26    14    15   ar
    27    15    16    1
    28    16    17    1
    29    16    18    2
    30    18     9    1
    31     6     1   ar
    32    15    11   ar
    33    33    27   ar
    34    23    26    1
    35    17    19    1
    36    17    20    1
