@<TRIPOS>MOLECULE
*****
 34 36 0 0 0
SMALL
GASTEIGER

@<TRIPOS>ATOM
      1 C          62.7355   90.0521   10.9191 C.ar    1  UNL1        0.0206
      2 C          61.6552   90.5880   10.0272 C.ar    1  UNL1        0.0025
      3 C          60.6801   89.6482    9.3823 C.ar    1  UNL1        0.0128
      4 C          60.7853   88.1724    9.6293 C.ar    1  UNL1        0.0765
      5 CL         59.8102   87.2326    8.9844 Cl      1  UNL1       -0.0808
      6 C          61.8657   87.6365   10.5213 C.ar    1  UNL1        0.1357
      7 C          62.8408   88.5764   11.1662 C.ar    1  UNL1        0.0226
      8 C          65.4554   92.9070   11.3683 C.ar    1  UNL1        0.1654
      9 N          64.4804   91.9672   10.7234 N.ar    1  UNL1       -0.2364
     10 C          63.7107   90.9920   11.5640 C.ar    1  UNL1        0.1007
     11 C          63.9160   90.9567   13.0495 C.ar    1  UNL1        0.1194
     12 N          64.8911   91.8965   13.6943 N.ar    1  UNL1       -0.2263
     13 C          65.6608   92.8717   12.8537 C.ar    1  UNL1        0.1477
     14 N          66.6359   93.8116   13.4986 N.pl3   1  UNL1       -0.3413
     15 H          66.7707   93.7884   14.4735 H       1  UNL1        0.1438
     16 H          67.1411   94.4516   12.9469 H       1  UNL1        0.1438
     17 C          66.2834   95.9956    9.0177 C.3     1  UNL1        0.1110
     18 N          65.5137   95.0204    9.8583 N.am    1  UNL1       -0.2978
     19 C          66.2252   93.8822   10.5277 C.2     1  UNL1        0.2664
     20 O          67.7064   93.7191   10.3564 O.2     1  UNL1       -0.2684
     21 H          64.5415   95.1275    9.9707 H       1  UNL1        0.1498
     22 S          61.9710   86.1608   10.7684 S.O2    1  UNL1        0.0745
     23 O          62.8546   86.0222    9.5643 O.2     1  UNL1       -0.1499
     24 O          61.0873   86.2993   11.9724 O.2     1  UNL1       -0.1499
     25 N          62.0762   84.6850   11.0154 N.pl3   1  UNL1       -0.2127
     26 H          61.6585   84.0501   10.3896 H       1  UNL1        0.1738
     27 C          62.8180   84.1766   12.2161 C.ar    1  UNL1        0.0944
     28 C          63.4919   85.1419   13.1455 C.ar    1  UNL1        0.0183
     29 C          64.2336   84.6336   14.3461 C.ar    1  UNL1        0.0038
     30 C          64.3014   83.1599   14.6172 C.ar    1  UNL1        0.0321
     31 C          63.6274   82.1945   13.6878 C.ar    1  UNL1        0.1687
     32 F          63.6951   80.7208   13.9589 F       1  UNL1       -0.2018
     33 C          62.8857   82.7029   12.4872 C.ar    1  UNL1        0.1818
     34 F          62.2117   81.7375   11.5578 F       1  UNL1       -0.2004
@<TRIPOS>BOND
     1    17    18    1
     2    18    19   am
     3    19    20    2
     4    19     8    1
     5     8     9   ar
     6     9    10   ar
     7    10     1    1
     8     1     2   ar
     9     2     3   ar
    10     3     4   ar
    11     4     5    1
    12     4     6   ar
    13     6    22    1
    14    22    23    2
    15    22    24    2
    16    22    25    1
    17    25    27    1
    18    27    28   ar
    19    28    29   ar
    20    29    30   ar
    21    30    31   ar
    22    31    32    1
    23    31    33   ar
    24    33    34    1
    25     6     7   ar
    26    10    11   ar
    27    11    12   ar
    28    12    13   ar
    29    13    14    1
    30    13     8   ar
    31     7     1   ar
    32    33    27   ar
    33    18    21    1
    34    25    26    1
    35    14    15    1
    36    14    16    1
@<TRIPOS>MOLECULE
*****
 34 36 0 0 0
SMALL
GASTEIGER

@<TRIPOS>ATOM
      1 C          63.9753   89.0268   14.9915 C.ar    1  UNL1        0.0206
      2 C          63.2935   89.3013   16.2990 C.ar    1  UNL1        0.0025
      3 C          62.8867   88.1624   17.1864 C.ar    1  UNL1        0.0128
      4 C          63.1618   86.7489   16.7662 C.ar    1  UNL1        0.0765
      5 CL         62.7551   85.6100   17.6535 Cl      1  UNL1       -0.0808
      6 C          63.8437   86.4744   15.4586 C.ar    1  UNL1        0.1357
      7 C          64.2505   87.6134   14.5713 C.ar    1  UNL1        0.0226
      8 C          65.7569   92.3359   13.7164 C.ar    1  UNL1        0.1654
      9 N          65.3502   91.1970   14.6037 N.ar    1  UNL1       -0.2364
     10 C          64.3821   90.1658   14.1041 C.ar    1  UNL1        0.1007
     11 C          63.8208   90.2735   12.7173 C.ar    1  UNL1        0.1194
     12 N          64.2276   91.4125   11.8300 N.ar    1  UNL1       -0.2263
     13 C          65.1956   92.4437   12.3296 C.ar    1  UNL1        0.1477
     14 N          65.6024   93.5826   11.4422 N.pl3   1  UNL1       -0.3413
     15 H          65.2340   93.6534   10.5320 H       1  UNL1        0.1438
     16 H          66.2378   94.2594   11.7700 H       1  UNL1        0.1438
     17 C          68.7986   93.9998   15.6476 C.3     1  UNL1        0.1110
     18 N          67.8306   92.9686   15.1480 N.am    1  UNL1       -0.2978
     19 C          66.7250   93.3671   14.2159 C.2     1  UNL1        0.2664
     20 O          66.5875   94.7967   13.7833 O.2     1  UNL1       -0.2684
     21 H          67.9208   92.0303   15.4320 H       1  UNL1        0.1498
     22 S          64.1188   85.0610   15.0384 S.O2    1  UNL1        0.0745
     23 O          65.5887   85.3578   15.0029 O.2     1  UNL1       -0.1499
     24 O          62.6490   84.7643   15.0740 O.2     1  UNL1       -0.1499
     25 N          64.3940   83.6477   14.6182 N.pl3   1  UNL1       -0.2127
     26 H          64.8403   83.0276   15.2391 H       1  UNL1        0.1738
     27 C          63.9891   83.1791   13.2520 C.ar    1  UNL1        0.0944
     28 C          64.0014   84.1358   12.0968 C.ar    1  UNL1        0.0183
     29 C          63.5966   83.6673   10.7306 C.ar    1  UNL1        0.0038
     30 C          63.1795   82.2420   10.5196 C.ar    1  UNL1        0.0321
     31 C          63.1672   81.2853   11.6748 C.ar    1  UNL1        0.1687
     32 F          62.7501   79.8599   11.4637 F       1  UNL1       -0.2018
     33 C          63.5720   81.7538   13.0410 C.ar    1  UNL1        0.1818
     34 F          63.5597   80.7970   14.1962 F       1  UNL1       -0.2004
@<TRIPOS>BOND
     1    17    18    1
     2    18    19   am
     3    19    20    2
     4    19     8    1
     5     8     9   ar
     6     9    10   ar
     7    10     1    1
     8     1     2   ar
     9     2     3   ar
    10     3     4   ar
    11     4     5    1
    12     4     6   ar
    13     6    22    1
    14    22    23    2
    15    22    24    2
    16    22    25    1
    17    25    27    1
    18    27    28   ar
    19    28    29   ar
    20    29    30   ar
    21    30    31   ar
    22    31    32    1
    23    31    33   ar
    24    33    34    1
    25     6     7   ar
    26    10    11   ar
    27    11    12   ar
    28    12    13   ar
    29    13    14    1
    30    13     8   ar
    31     7     1   ar
    32    33    27   ar
    33    18    21    1
    34    25    26    1
    35    14    15    1
    36    14    16    1
@<TRIPOS>MOLECULE
*****
 34 36 0 0 0
SMALL
GASTEIGER

@<TRIPOS>ATOM
      1 C          62.2565   85.9577   11.4135 C.ar    1  UNL1        0.0206
      2 C          61.3884   85.7947   10.2012 C.ar    1  UNL1        0.0025
      3 C          60.9005   87.0041    9.4600 C.ar    1  UNL1        0.0128
      4 C          61.2808   88.3765    9.9311 C.ar    1  UNL1        0.0765
      5 CL         60.7929   89.5859    9.1900 Cl      1  UNL1       -0.0808
      6 C          62.1490   88.5395   11.1435 C.ar    1  UNL1        0.1357
      7 C          62.6369   87.3300   11.8846 C.ar    1  UNL1        0.0226
      8 C          63.0435   82.1720   12.3074 C.ar    1  UNL1        0.1654
      9 N          62.5557   83.3814   11.5663 N.ar    1  UNL1       -0.2364
     10 C          62.7444   84.7482   12.1547 C.ar    1  UNL1        0.1007
     11 C          63.4210   84.9057   13.4841 C.ar    1  UNL1        0.1194
     12 N          63.9088   83.6962   14.2252 N.ar    1  UNL1       -0.2263
     13 C          63.7201   82.3294   13.6368 C.ar    1  UNL1        0.1477
     14 N          64.2080   81.1199   14.3780 N.pl3   1  UNL1       -0.3413
     15 H          64.6520   81.2233   15.2506 H       1  UNL1        0.1438
     16 H          64.0841   80.2228   13.9919 H       1  UNL1        0.1438
     17 C          62.8729   79.2191    9.6614 C.3     1  UNL1        0.1110
     18 N          63.0616   80.5860   10.2497 N.am    1  UNL1       -0.2978
     19 C          62.8548   80.8051   11.7191 C.2     1  UNL1        0.2664
     20 O          62.4592   79.6575   12.6001 O.2     1  UNL1       -0.2684
     21 H          63.3213   81.3392    9.6714 H       1  UNL1        0.1498
     22 S          62.5293   89.9118   11.6146 S.O2    1  UNL1        0.0745
     23 O          61.6864   89.7243   12.8411 O.2     1  UNL1       -0.1499
     24 O          63.3721   90.0993   10.3881 O.2     1  UNL1       -0.1499
     25 N          62.9096   91.2841   12.0858 N.pl3   1  UNL1       -0.2127
     26 H          62.2154   91.9701   12.2154 H       1  UNL1        0.1738
     27 C          64.3477   91.6115   12.3594 C.ar    1  UNL1        0.0944
     28 C          65.1474   92.3796   11.3492 C.ar    1  UNL1        0.0183
     29 C          66.5854   92.7069   11.6228 C.ar    1  UNL1        0.0038
     30 C          67.2237   92.2661   12.9066 C.ar    1  UNL1        0.0321
     31 C          66.4240   91.4980   13.9168 C.ar    1  UNL1        0.1687
     32 F          67.0625   91.0572   15.2007 F       1  UNL1       -0.2018
     33 C          64.9860   91.1707   13.6432 C.ar    1  UNL1        0.1818
     34 F          64.1863   90.4025   14.6534 F       1  UNL1       -0.2004
@<TRIPOS>BOND
     1    17    18    1
     2    18    19   am
     3    19    20    2
     4    19     8    1
     5     8     9   ar
     6     9    10   ar
     7    10     1    1
     8     1     2   ar
     9     2     3   ar
    10     3     4   ar
    11     4     5    1
    12     4     6   ar
    13     6    22    1
    14    22    23    2
    15    22    24    2
    16    22    25    1
    17    25    27    1
    18    27    28   ar
    19    28    29   ar
    20    29    30   ar
    21    30    31   ar
    22    31    32    1
    23    31    33   ar
    24    33    34    1
    25     6     7   ar
    26    10    11   ar
    27    11    12   ar
    28    12    13   ar
    29    13    14    1
    30    13     8   ar
    31     7     1   ar
    32    33    27   ar
    33    18    21    1
    34    25    26    1
    35    14    15    1
    36    14    16    1
@<TRIPOS>MOLECULE
*****
 34 36 0 0 0
SMALL
GASTEIGER

@<TRIPOS>ATOM
      1 C          64.1848   88.7182   14.4684 C.ar    1  UNL1        0.0206
      2 C          63.8466   88.5283   15.9174 C.ar    1  UNL1        0.0025
      3 C          63.3965   87.1860   16.4129 C.ar    1  UNL1        0.0128
      4 C          63.2847   86.0334   15.4594 C.ar    1  UNL1        0.0765
      5 CL         62.8346   84.6911   15.9549 Cl      1  UNL1       -0.0808
      6 C          63.6229   86.2232   14.0104 C.ar    1  UNL1        0.1357
      7 C          64.0730   87.5657   13.5149 C.ar    1  UNL1        0.0226
      8 C          66.3800   91.9852   13.9609 C.ar    1  UNL1        0.1654
      9 N          65.9299   90.6429   14.4563 N.ar    1  UNL1       -0.2364
     10 C          64.6348   90.0606   13.9729 C.ar    1  UNL1        0.1007
     11 C          63.7898   90.8206   12.9940 C.ar    1  UNL1        0.1194
     12 N          64.2399   92.1630   12.4986 N.ar    1  UNL1       -0.2263
     13 C          65.5350   92.7453   12.9821 C.ar    1  UNL1        0.1477
     14 N          65.9850   94.0877   12.4866 N.pl3   1  UNL1       -0.3413
     15 H          65.4304   94.5866   11.8441 H       1  UNL1        0.1438
     16 H          66.8350   94.4699   12.8039 H       1  UNL1        0.1438
     17 C          68.9836   94.0657   16.1156 C.3     1  UNL1        0.1110
     18 N          67.6885   93.4834   15.6322 N.am    1  UNL1       -0.2978
     19 C          67.6751   92.5675   14.4444 C.2     1  UNL1        0.2664
     20 O          68.9567   92.2339   13.7400 O.2     1  UNL1       -0.2684
     21 H          66.8474   93.7024   16.0945 H       1  UNL1        0.1498
     22 S          63.5111   85.0707   13.0569 S.O2    1  UNL1        0.0745
     23 O          62.1996   85.6061   12.5636 O.2     1  UNL1       -0.1499
     24 O          64.8226   84.5354   13.5501 O.2     1  UNL1       -0.1499
     25 N          63.3993   83.9182   12.1034 N.pl3   1  UNL1       -0.2127
     26 H          63.6657   84.0303   11.1623 H       1  UNL1        0.1738
     27 C          62.8815   82.5949   12.5838 C.ar    1  UNL1        0.0944
     28 C          62.2034   82.4944   13.9180 C.ar    1  UNL1        0.0183
     29 C          61.6856   81.1711   14.3984 C.ar    1  UNL1        0.0038
     30 C          61.8459   79.9484   13.5445 C.ar    1  UNL1        0.0321
     31 C          62.5240   80.0488   12.2103 C.ar    1  UNL1        0.1687
     32 F          62.6842   78.8259   11.3565 F       1  UNL1       -0.2018
     33 C          63.0417   81.3721   11.7299 C.ar    1  UNL1        0.1818
     34 F          63.7198   81.4726   10.3957 F       1  UNL1       -0.2004
@<TRIPOS>BOND
     1    17    18    1
     2    18    19   am
     3    19    20    2
     4    19     8    1
     5     8     9   ar
     6     9    10   ar
     7    10     1    1
     8     1     2   ar
     9     2     3   ar
    10     3     4   ar
    11     4     5    1
    12     4     6   ar
    13     6    22    1
    14    22    23    2
    15    22    24    2
    16    22    25    1
    17    25    27    1
    18    27    28   ar
    19    28    29   ar
    20    29    30   ar
    21    30    31   ar
    22    31    32    1
    23    31    33   ar
    24    33    34    1
    25     6     7   ar
    26    10    11   ar
    27    11    12   ar
    28    12    13   ar
    29    13    14    1
    30    13     8   ar
    31     7     1   ar
    32    33    27   ar
    33    18    21    1
    34    25    26    1
    35    14    15    1
    36    14    16    1
@<TRIPOS>MOLECULE
*****
 34 36 0 0 0
SMALL
GASTEIGER

@<TRIPOS>ATOM
      1 C          63.6848   89.0550   14.6978 C.ar    1  UNL1        0.0206
      2 C          63.2861   89.6465   16.0174 C.ar    1  UNL1        0.0025
      3 C          63.0421   88.7525   17.1969 C.ar    1  UNL1        0.0128
      4 C          63.1968   87.2671   17.0569 C.ar    1  UNL1        0.0765
      5 CL         62.9528   86.3731   18.2364 Cl      1  UNL1       -0.0808
      6 C          63.5955   86.6756   15.7373 C.ar    1  UNL1        0.1357
      7 C          63.8395   87.5696   14.5578 C.ar    1  UNL1        0.0226
      8 C          65.0606   92.0440   12.4789 C.ar    1  UNL1        0.1654
      9 N          64.8166   91.1500   13.6584 N.ar    1  UNL1       -0.2364
     10 C          63.9288   89.9490   13.5183 C.ar    1  UNL1        0.1007
     11 C          63.2851   89.6421   12.1987 C.ar    1  UNL1        0.1194
     12 N          63.5291   90.5361   11.0192 N.ar    1  UNL1       -0.2263
     13 C          64.4169   91.7370   11.1594 C.ar    1  UNL1        0.1477
     14 N          64.6609   92.6311    9.9798 N.pl3   1  UNL1       -0.3413
     15 H          64.2384   92.4296    9.1137 H       1  UNL1        0.1438
     16 H          65.2435   93.4193   10.0718 H       1  UNL1        0.1438
     17 C          66.5217   95.7032   12.0041 C.3     1  UNL1        0.1110
     18 N          65.6339   94.5023   11.8640 N.am    1  UNL1       -0.2978
     19 C          65.9484   93.2449   12.6191 C.2     1  UNL1        0.2664
     20 O          67.1506   93.1885   13.5142 O.2     1  UNL1       -0.2684
     21 H          64.8448   94.5393   11.2765 H       1  UNL1        0.1498
     22 S          63.7502   85.1902   15.5973 S.O2    1  UNL1        0.0745
     23 O          62.2644   85.0497   15.4470 O.2     1  UNL1       -0.1499
     24 O          65.2360   85.3308   15.7476 O.2     1  UNL1       -0.1499
     25 N          63.9049   83.7049   15.4572 N.pl3   1  UNL1       -0.2127
     26 H          64.2242   83.1692   16.2191 H       1  UNL1        0.1738
     27 C          63.5732   83.0355   14.1564 C.ar    1  UNL1        0.0944
     28 C          62.5256   81.9629   14.1106 C.ar    1  UNL1        0.0183
     29 C          62.1939   81.2936   12.8099 C.ar    1  UNL1        0.0038
     30 C          62.9097   81.6970   11.5550 C.ar    1  UNL1        0.0321
     31 C          63.9572   82.7696   11.6008 C.ar    1  UNL1        0.1687
     32 F          64.6730   83.1729   10.3457 F       1  UNL1       -0.2018
     33 C          64.2890   83.4389   12.9015 C.ar    1  UNL1        0.1818
     34 F          65.3365   84.5115   12.9473 F       1  UNL1       -0.2004
@<TRIPOS>BOND
     1    17    18    1
     2    18    19   am
     3    19    20    2
     4    19     8    1
     5     8     9   ar
     6     9    10   ar
     7    10     1    1
     8     1     2   ar
     9     2     3   ar
    10     3     4   ar
    11     4     5    1
    12     4     6   ar
    13     6    22    1
    14    22    23    2
    15    22    24    2
    16    22    25    1
    17    25    27    1
    18    27    28   ar
    19    28    29   ar
    20    29    30   ar
    21    30    31   ar
    22    31    32    1
    23    31    33   ar
    24    33    34    1
    25     6     7   ar
    26    10    11   ar
    27    11    12   ar
    28    12    13   ar
    29    13    14    1
    30    13     8   ar
    31     7     1   ar
    32    33    27   ar
    33    18    21    1
    34    25    26    1
    35    14    15    1
    36    14    16    1
@<TRIPOS>MOLECULE
*****
 34 36 0 0 0
SMALL
GASTEIGER

@<TRIPOS>ATOM
      1 C          61.7611   86.0993   10.6885 C.ar    1  UNL1        0.0206
      2 C          60.8584   85.8450    9.5178 C.ar    1  UNL1        0.0025
      3 C          60.3564   86.9937    8.6943 C.ar    1  UNL1        0.0128
      4 C          60.7572   88.3970    9.0413 C.ar    1  UNL1        0.0765
      5 CL         60.2552   89.5458    8.2178 Cl      1  UNL1       -0.0808
      6 C          61.6599   88.6513   10.2120 C.ar    1  UNL1        0.1357
      7 C          62.1618   87.5025   11.0356 C.ar    1  UNL1        0.0226
      8 C          63.0238   83.9863   13.8015 C.ar    1  UNL1        0.1654
      9 N          62.5219   85.1351   12.9779 N.ar    1  UNL1       -0.2364
     10 C          62.2631   84.9504   11.5120 C.ar    1  UNL1        0.1007
     11 C          62.5062   83.6170   10.8697 C.ar    1  UNL1        0.1194
     12 N          63.0081   82.4682   11.6932 N.ar    1  UNL1       -0.2263
     13 C          63.2669   82.6528   13.1591 C.ar    1  UNL1        0.1477
     14 N          63.7689   81.5040   13.9827 N.pl3   1  UNL1       -0.3413
     15 H          63.9285   80.6287   13.5611 H       1  UNL1        0.1438
     16 H          63.9387   81.6252   14.9448 H       1  UNL1        0.1438
     17 C          63.0148   85.5690   17.4409 C.3     1  UNL1        0.1110
     18 N          62.7560   85.3843   15.9750 N.am    1  UNL1       -0.2978
     19 C          63.2826   84.1710   15.2674 C.2     1  UNL1        0.2664
     20 O          64.0679   83.1424   16.0258 O.2     1  UNL1       -0.2684
     21 H          62.2406   86.0594   15.4772 H       1  UNL1        0.1498
     22 S          62.0606   90.0545   10.5591 S.O2    1  UNL1        0.0745
     23 O          60.8221   90.2021   11.3922 O.2     1  UNL1       -0.1499
     24 O          63.2992   89.9068    9.7260 O.2     1  UNL1       -0.1499
     25 N          62.4614   91.4576   10.9062 N.pl3   1  UNL1       -0.2127
     26 H          61.8555   92.2069   10.7042 H       1  UNL1        0.1738
     27 C          63.7853   91.7193   11.5612 C.ar    1  UNL1        0.0944
     28 C          64.8514   92.4729   10.8227 C.ar    1  UNL1        0.0183
     29 C          66.1753   92.7346   11.4776 C.ar    1  UNL1        0.0038
     30 C          66.4330   92.2426   12.8710 C.ar    1  UNL1        0.0321
     31 C          65.3668   91.4890   13.6094 C.ar    1  UNL1        0.1687
     32 F          65.6246   90.9970   15.0029 F       1  UNL1       -0.2018
     33 C          64.0430   91.2273   12.9545 C.ar    1  UNL1        0.1818
     34 F          62.9768   90.4737   13.6930 F       1  UNL1       -0.2004
@<TRIPOS>BOND
     1    17    18    1
     2    18    19   am
     3    19    20    2
     4    19     8    1
     5     8     9   ar
     6     9    10   ar
     7    10     1    1
     8     1     2   ar
     9     2     3   ar
    10     3     4   ar
    11     4     5    1
    12     4     6   ar
    13     6    22    1
    14    22    23    2
    15    22    24    2
    16    22    25    1
    17    25    27    1
    18    27    28   ar
    19    28    29   ar
    20    29    30   ar
    21    30    31   ar
    22    31    32    1
    23    31    33   ar
    24    33    34    1
    25     6     7   ar
    26    10    11   ar
    27    11    12   ar
    28    12    13   ar
    29    13    14    1
    30    13     8   ar
    31     7     1   ar
    32    33    27   ar
    33    18    21    1
    34    25    26    1
    35    14    15    1
    36    14    16    1
@<TRIPOS>MOLECULE
*****
 34 36 0 0 0
SMALL
GASTEIGER

@<TRIPOS>ATOM
      1 C          62.2628   85.7269   11.4532 C.ar    1  UNL1        0.0206
      2 C          61.3794   85.4978   10.2628 C.ar    1  UNL1        0.0025
      3 C          60.8218   86.6670    9.5065 C.ar    1  UNL1        0.0128
      4 C          61.1477   88.0654    9.9407 C.ar    1  UNL1        0.0765
      5 CL         60.5901   89.2347    9.1844 Cl      1  UNL1       -0.0808
      6 C          62.0311   88.2945   11.1311 C.ar    1  UNL1        0.1357
      7 C          62.5887   87.1252   11.8874 C.ar    1  UNL1        0.0226
      8 C          62.5394   82.1625   13.1762 C.ar    1  UNL1        0.1654
      9 N          61.9819   83.3318   12.4200 N.ar    1  UNL1       -0.2364
     10 C          62.8204   84.5576   12.2095 C.ar    1  UNL1        0.1007
     11 C          64.2164   84.6141   12.7553 C.ar    1  UNL1        0.1194
     12 N          64.7739   83.4449   13.5116 N.ar    1  UNL1       -0.2263
     13 C          63.9354   82.2190   13.7220 C.ar    1  UNL1        0.1477
     14 N          64.4929   81.0497   14.4783 N.pl3   1  UNL1       -0.3413
     15 H          65.4092   81.0868   14.8365 H       1  UNL1        0.1438
     16 H          63.9426   80.2452   14.6164 H       1  UNL1        0.1438
     17 C          59.5399   79.8178   14.2968 C.3     1  UNL1        0.1110
     18 N          60.3784   81.0436   14.0863 N.am    1  UNL1       -0.2978
     19 C          61.7009   80.9367   13.3866 C.2     1  UNL1        0.2664
     20 O          62.1848   79.6039   12.8973 O.2     1  UNL1       -0.2684
     21 H          60.0608   81.9184   14.4075 H       1  UNL1        0.1498
     22 S          62.3569   89.6928   11.5652 S.O2    1  UNL1        0.0745
     23 O          61.4466   89.5379   12.7473 O.2     1  UNL1       -0.1499
     24 O          63.2672   89.8477   10.3832 O.2     1  UNL1       -0.1499
     25 N          62.6828   91.0911   11.9994 N.pl3   1  UNL1       -0.2127
     26 H          61.9956   91.7944   11.9505 H       1  UNL1        0.1738
     27 C          64.0556   91.4179   12.5080 C.ar    1  UNL1        0.0944
     28 C          64.5055   90.8966   13.8406 C.ar    1  UNL1        0.0183
     29 C          65.8783   91.2233   14.3492 C.ar    1  UNL1        0.0038
     30 C          66.8012   92.0713   13.5251 C.ar    1  UNL1        0.0321
     31 C          66.3513   92.5925   12.1925 C.ar    1  UNL1        0.1687
     32 F          67.2744   93.4405   11.3684 F       1  UNL1       -0.2018
     33 C          64.9786   92.2658   11.6839 C.ar    1  UNL1        0.1818
     34 F          64.5287   92.7871   10.3513 F       1  UNL1       -0.2004
@<TRIPOS>BOND
     1    17    18    1
     2    18    19   am
     3    19    20    2
     4    19     8    1
     5     8     9   ar
     6     9    10   ar
     7    10     1    1
     8     1     2   ar
     9     2     3   ar
    10     3     4   ar
    11     4     5    1
    12     4     6   ar
    13     6    22    1
    14    22    23    2
    15    22    24    2
    16    22    25    1
    17    25    27    1
    18    27    28   ar
    19    28    29   ar
    20    29    30   ar
    21    30    31   ar
    22    31    32    1
    23    31    33   ar
    24    33    34    1
    25     6     7   ar
    26    10    11   ar
    27    11    12   ar
    28    12    13   ar
    29    13    14    1
    30    13     8   ar
    31     7     1   ar
    32    33    27   ar
    33    18    21    1
    34    25    26    1
    35    14    15    1
    36    14    16    1
@<TRIPOS>MOLECULE
*****
 34 36 0 0 0
SMALL
GASTEIGER

@<TRIPOS>ATOM
      1 C          63.6796   88.9314   15.0366 C.ar    1  UNL1        0.0206
      2 C          63.2433   89.4756   16.3646 C.ar    1  UNL1        0.0025
      3 C          62.9612   88.5400   17.5025 C.ar    1  UNL1        0.0128
      4 C          63.1153   87.0600   17.3125 C.ar    1  UNL1        0.0765
      5 CL         62.8331   86.1243   18.4504 Cl      1  UNL1       -0.0808
      6 C          63.5516   86.5158   15.9845 C.ar    1  UNL1        0.1357
      7 C          63.8338   87.4516   14.8466 C.ar    1  UNL1        0.0226
      8 C          63.4085   90.7437   11.5164 C.ar    1  UNL1        0.1654
      9 N          63.1264   89.8080   12.6543 N.ar    1  UNL1       -0.2364
     10 C          63.9618   89.8672   13.8987 C.ar    1  UNL1        0.1007
     11 C          65.0793   90.8620   14.0052 C.ar    1  UNL1        0.1194
     12 N          65.3614   91.7977   12.8673 N.ar    1  UNL1       -0.2263
     13 C          64.5260   91.7385   11.6229 C.ar    1  UNL1        0.1477
     14 N          64.8082   92.6743   10.4850 N.pl3   1  UNL1       -0.3413
     15 H          65.5417   93.3273   10.5549 H       1  UNL1        0.1438
     16 H          64.2599   92.6355    9.6682 H       1  UNL1        0.1438
     17 C          60.5756   89.6803    8.9486 C.3     1  UNL1        0.1110
     18 N          61.4110   89.7395   10.1930 N.am    1  UNL1       -0.2978
     19 C          62.5731   90.6845   10.2719 C.2     1  UNL1        0.2664
     20 O          62.8999   91.5704    9.1064 O.2     1  UNL1       -0.2684
     21 H          61.1965   89.1581   10.9580 H       1  UNL1        0.1498
     22 S          63.7058   85.0359   15.7945 S.O2    1  UNL1        0.0745
     23 O          65.1964   85.1804   15.8786 O.2     1  UNL1       -0.1499
     24 O          62.2152   84.8915   15.7103 O.2     1  UNL1       -0.1499
     25 N          63.8599   83.5561   15.6044 N.pl3   1  UNL1       -0.2127
     26 H          64.1807   82.9951   16.3472 H       1  UNL1        0.1738
     27 C          63.5254   82.9307   14.2826 C.ar    1  UNL1        0.0944
     28 C          62.4357   81.9038   14.1931 C.ar    1  UNL1        0.0183
     29 C          62.1012   81.2785   12.8713 C.ar    1  UNL1        0.0038
     30 C          62.8563   81.6801   11.6391 C.ar    1  UNL1        0.0321
     31 C          63.9460   82.7071   11.7286 C.ar    1  UNL1        0.1687
     32 F          64.7012   83.1087   10.4963 F       1  UNL1       -0.2018
     33 C          64.2805   83.3324   13.0504 C.ar    1  UNL1        0.1818
     34 F          65.3702   84.3593   13.1399 F       1  UNL1       -0.2004
@<TRIPOS>BOND
     1    17    18    1
     2    18    19   am
     3    19    20    2
     4    19     8    1
     5     8     9   ar
     6     9    10   ar
     7    10     1    1
     8     1     2   ar
     9     2     3   ar
    10     3     4   ar
    11     4     5    1
    12     4     6   ar
    13     6    22    1
    14    22    23    2
    15    22    24    2
    16    22    25    1
    17    25    27    1
    18    27    28   ar
    19    28    29   ar
    20    29    30   ar
    21    30    31   ar
    22    31    32    1
    23    31    33   ar
    24    33    34    1
    25     6     7   ar
    26    10    11   ar
    27    11    12   ar
    28    12    13   ar
    29    13    14    1
    30    13     8   ar
    31     7     1   ar
    32    33    27   ar
    33    18    21    1
    34    25    26    1
    35    14    15    1
    36    14    16    1
@<TRIPOS>MOLECULE
*****
 34 36 0 0 0
SMALL
GASTEIGER

@<TRIPOS>ATOM
      1 C          61.7830   86.9443   10.6833 C.ar    1  UNL1        0.0206
      2 C          60.4648   87.1974   10.0138 C.ar    1  UNL1        0.0025
      3 C          59.8368   88.5578   10.0843 C.ar    1  UNL1        0.0128
      4 C          60.5271   89.6651   10.8243 C.ar    1  UNL1        0.0765
      5 CL         59.8992   91.0255   10.8948 Cl      1  UNL1       -0.0808
      6 C          61.8453   89.4119   11.4938 C.ar    1  UNL1        0.1357
      7 C          62.4733   88.0515   11.4233 C.ar    1  UNL1        0.0226
      8 C          62.9942   83.3141   11.7345 C.ar    1  UNL1        0.1654
      9 N          62.3663   84.6745   11.8049 N.ar    1  UNL1       -0.2364
     10 C          62.4110   85.5838   10.6128 C.ar    1  UNL1        0.1007
     11 C          63.0835   85.1327    9.3502 C.ar    1  UNL1        0.1194
     12 N          63.7114   83.7723    9.2798 N.ar    1  UNL1       -0.2263
     13 C          63.6668   82.8630   10.4719 C.ar    1  UNL1        0.1477
     14 N          64.2947   81.5026   10.4014 N.pl3   1  UNL1       -0.3413
     15 H          64.7362   81.2065    9.5727 H       1  UNL1        0.1438
     16 H          64.2654   80.9057   11.1838 H       1  UNL1        0.1438
     17 C          61.9098   80.3742   14.1699 C.3     1  UNL1        0.1110
     18 N          61.9545   81.2836   12.9778 N.am    1  UNL1       -0.2978
     19 C          62.9496   82.4048   12.9266 C.2     1  UNL1        0.2664
     20 O          63.9000   82.6166   14.0675 O.2     1  UNL1       -0.2684
     21 H          61.3307   81.1445   12.2289 H       1  UNL1        0.1498
     22 S          62.5356   90.5191   12.2337 S.O2    1  UNL1        0.0745
     23 O          62.2553   89.8251   13.5336 O.2     1  UNL1       -0.1499
     24 O          62.8159   91.2131   10.9339 O.2     1  UNL1       -0.1499
     25 N          63.2259   91.6263   12.9737 N.pl3   1  UNL1       -0.2127
     26 H          62.6977   92.2779   13.4892 H       1  UNL1        0.1738
     27 C          64.7209   91.7408   12.9283 C.ar    1  UNL1        0.0944
     28 C          65.3972   92.2430   11.6872 C.ar    1  UNL1        0.0183
     29 C          66.8921   92.3575   11.6417 C.ar    1  UNL1        0.0038
     30 C          67.7107   91.9697   12.8373 C.ar    1  UNL1        0.0321
     31 C          67.0343   91.4675   14.0784 C.ar    1  UNL1        0.1687
     32 F          67.8530   91.0797   15.2741 F       1  UNL1       -0.2018
     33 C          65.5394   91.3530   14.1239 C.ar    1  UNL1        0.1818
     34 F          64.8631   90.8508   15.3650 F       1  UNL1       -0.2004
@<TRIPOS>BOND
     1    17    18    1
     2    18    19   am
     3    19    20    2
     4    19     8    1
     5     8     9   ar
     6     9    10   ar
     7    10     1    1
     8     1     2   ar
     9     2     3   ar
    10     3     4   ar
    11     4     5    1
    12     4     6   ar
    13     6    22    1
    14    22    23    2
    15    22    24    2
    16    22    25    1
    17    25    27    1
    18    27    28   ar
    19    28    29   ar
    20    29    30   ar
    21    30    31   ar
    22    31    32    1
    23    31    33   ar
    24    33    34    1
    25     6     7   ar
    26    10    11   ar
    27    11    12   ar
    28    12    13   ar
    29    13    14    1
    30    13     8   ar
    31     7     1   ar
    32    33    27   ar
    33    18    21    1
    34    25    26    1
    35    14    15    1
    36    14    16    1
