@<TRIPOS>MOLECULE
*****
 35 37 0 0 0
SMALL
GASTEIGER

@<TRIPOS>ATOM
      1 C          64.2565   88.8614   15.1250 C.ar    1  UNL1        0.0505
      2 C          63.5077   89.1169   16.3994 C.ar    1  UNL1        0.0170
      3 C          62.8608   87.9780   17.1304 C.ar    1  UNL1        0.0307
      4 C          62.9626   86.5837   16.5870 C.ar    1  UNL1        0.1402
      5 F          62.3156   85.4447   17.3180 F       1  UNL1       -0.2044
      6 C          63.7114   86.3282   15.3126 C.ar    1  UNL1        0.0528
      7 C          64.3583   87.4670   14.5816 C.ar    1  UNL1        0.0167
      8 C          63.8132   84.9337   14.7693 C.3     1  UNL1        0.2223
      9 C          64.0159   84.6595   16.2300 C.3     1  UNL1        0.0607
     10 C          63.5751   85.6921   13.4973 C.3     1  UNL1        0.1959
     11 O          63.5092   84.9610   12.1892 O.3     1  UNL1       -0.3357
     12 C          63.6814   83.4713   12.1532 C.3     1  UNL1        0.2740
     13 C          63.7833   82.0769   11.6099 C.3     1  UNL1        0.0512
     14 C          63.9195   82.7129   13.4252 C.2     1  UNL1        0.3217
     15 N          64.0917   81.2232   13.3892 N.pl3   1  UNL1       -0.2480
     16 N          63.9854   83.4441   14.7333 N.2     1  UNL1       -0.0692
     17 H          64.0485   80.7433   12.5307 H       1  UNL1        0.2882
     18 H          64.2480   80.7255   14.2241 H       1  UNL1        0.2882
     19 C          63.4787   83.7455   10.6924 C.3     1  UNL1        0.4305
     20 F          63.2760   84.0197    9.2316 F       1  UNL1       -0.1670
     21 F          64.8190   83.1420   10.3931 F       1  UNL1       -0.1670
     22 F          62.1386   84.3490   10.9917 F       1  UNL1       -0.1670
     23 C          64.1329   90.7582   13.3539 C.2     1  UNL1        0.2669
     24 O          62.7155   90.3772   13.0448 O.2     1  UNL1       -0.2682
     25 N          64.9035   90.0003   14.3940 N.am    1  UNL1       -0.2792
     26 H          65.8338   90.2504   14.5969 H       1  UNL1        0.1552
     27 C          63.6287   91.1379   10.4210 C.3     1  UNL1        0.0328
     28 C          64.5278   92.0870   11.1565 C.ar    1  UNL1        0.0010
     29 C          65.1747   93.2259   10.4256 C.ar    1  UNL1        0.0092
     30 C          66.0738   94.1750   11.1611 C.ar    1  UNL1        0.0873
     31 C          66.3259   93.9852   12.6275 C.ar    1  UNL1        0.1092
     32 N          65.6790   92.8463   13.3584 N.ar    1  UNL1       -0.2389
     33 C          64.7799   91.8972   12.6229 C.ar    1  UNL1        0.1308
     34 C          66.7208   95.3140   10.4301 C.1     1  UNL1        0.1020
     35 N          67.3677   96.4529    9.6991 N.1     1  UNL1       -0.1908
@<TRIPOS>BOND
     1    27    28    1
     2    28    29   ar
     3    29    30   ar
     4    30    34    1
     5    34    35    3
     6    30    31   ar
     7    31    32   ar
     8    32    33   ar
     9    33    23    1
    10    23    24    2
    11    23    25   am
    12    25     1    1
    13     1     2   ar
    14     2     3   ar
    15     3     4   ar
    16     4     5    1
    17     4     6   ar
    18     6     8    1
    19     8     9    1
    20     8    10    1
    21    10    11    1
    22    11    12    1
    23    12    13    1
    24    12    19    1
    25    19    20    1
    26    19    21    1
    27    19    22    1
    28    12    14    1
    29    14    15    1
    30    14    16    2
    31     6     7   ar
    32    33    28   ar
    33     7     1   ar
    34    16     8    1
    35    25    26    1
    36    15    17    1
    37    15    18    1
@<TRIPOS>MOLECULE
*****
 35 37 0 0 0
SMALL
GASTEIGER

@<TRIPOS>ATOM
      1 C          63.5893   86.4948   14.9677 C.ar    1  UNL1        0.0505
      2 C          63.2225   86.7152   16.4054 C.ar    1  UNL1        0.0170
      3 C          63.2020   88.1048   16.9697 C.ar    1  UNL1        0.0307
      4 C          63.5484   89.2741   16.0963 C.ar    1  UNL1        0.1402
      5 F          63.5280   90.6638   16.6606 F       1  UNL1       -0.2044
      6 C          63.9152   89.0537   14.6586 C.ar    1  UNL1        0.0528
      7 C          63.9357   87.6641   14.0943 C.ar    1  UNL1        0.0167
      8 C          64.2616   90.2231   13.7852 C.3     1  UNL1        0.2223
      9 C          63.0014   89.7617   13.1151 C.3     1  UNL1        0.0607
     10 C          65.4015   90.2783   14.7586 C.3     1  UNL1        0.1959
     11 O          66.4501   91.3427   14.6260 O.3     1  UNL1       -0.3357
     12 C          66.3588   92.3518   13.5199 C.3     1  UNL1        0.2740
     13 C          66.7051   93.5210   12.6465 C.3     1  UNL1        0.0512
     14 C          65.2189   92.2965   12.5465 C.2     1  UNL1        0.3217
     15 N          65.1275   93.3055   11.4403 N.pl3   1  UNL1       -0.2480
     16 N          64.1702   91.2321   12.6791 N.2     1  UNL1       -0.0692
     17 H          65.8157   94.0041   11.3532 H       1  UNL1        0.2882
     18 H          64.3794   93.2691   10.8015 H       1  UNL1        0.2882
     19 C          67.6190   92.8132   14.1900 C.3     1  UNL1        0.4305
     20 F          68.8792   93.2746   14.8602 F       1  UNL1       -0.1670
     21 F          66.8562   93.9131   14.8671 F       1  UNL1       -0.1670
     22 F          68.3816   91.7133   13.5129 F       1  UNL1       -0.1670
     23 C          62.8305   84.7884   13.1614 C.2     1  UNL1        0.2669
     24 O          62.0309   85.8614   12.4837 O.2     1  UNL1       -0.2682
     25 N          63.6097   85.1051   14.4034 N.am    1  UNL1       -0.2792
     26 H          64.1345   84.4009   14.8482 H       1  UNL1        0.1552
     27 C          63.5492   84.3489   10.2821 C.3     1  UNL1        0.0328
     28 C          63.2103   83.1790   11.1575 C.ar    1  UNL1        0.0010
     29 C          63.2307   81.7893   10.5933 C.ar    1  UNL1        0.0092
     30 C          62.8918   80.6194   11.4688 C.ar    1  UNL1        0.0873
     31 C          62.5324   80.8391   12.9084 C.ar    1  UNL1        0.1092
     32 N          62.5120   82.2287   13.4726 N.ar    1  UNL1       -0.2389
     33 C          62.8510   83.3987   12.5972 C.ar    1  UNL1        0.1308
     34 C          62.9122   79.2296   10.9045 C.1     1  UNL1        0.1020
     35 N          62.9326   77.8400   10.3403 N.1     1  UNL1       -0.1908
@<TRIPOS>BOND
     1    27    28    1
     2    28    29   ar
     3    29    30   ar
     4    30    34    1
     5    34    35    3
     6    30    31   ar
     7    31    32   ar
     8    32    33   ar
     9    33    23    1
    10    23    24    2
    11    23    25   am
    12    25     1    1
    13     1     2   ar
    14     2     3   ar
    15     3     4   ar
    16     4     5    1
    17     4     6   ar
    18     6     8    1
    19     8     9    1
    20     8    10    1
    21    10    11    1
    22    11    12    1
    23    12    13    1
    24    12    19    1
    25    19    20    1
    26    19    21    1
    27    19    22    1
    28    12    14    1
    29    14    15    1
    30    14    16    2
    31     6     7   ar
    32    33    28   ar
    33     7     1   ar
    34    16     8    1
    35    25    26    1
    36    15    17    1
    37    15    18    1
@<TRIPOS>MOLECULE
*****
 35 37 0 0 0
SMALL
GASTEIGER

@<TRIPOS>ATOM
      1 C          62.6108   89.5735   11.4934 C.ar    1  UNL1        0.0505
      2 C          61.2939   90.0576   10.9628 C.ar    1  UNL1        0.0170
      3 C          60.3376   89.0891   10.3325 C.ar    1  UNL1        0.0307
      4 C          60.6981   87.6365   10.2327 C.ar    1  UNL1        0.1402
      5 F          59.7418   86.6679    9.6024 F       1  UNL1       -0.2044
      6 C          62.0151   87.1525   10.7633 C.ar    1  UNL1        0.0528
      7 C          62.9714   88.1210   11.3936 C.ar    1  UNL1        0.0167
      8 C          62.3756   85.6998   10.6635 C.3     1  UNL1        0.2223
      9 C          62.4639   86.0901    9.2178 C.3     1  UNL1        0.0607
     10 C          62.1621   85.8141   12.1437 C.3     1  UNL1        0.1959
     11 O          62.3398   84.6112   13.0222 O.3     1  UNL1       -0.3357
     12 C          62.7310   83.2941   12.4203 C.3     1  UNL1        0.2740
     13 C          63.0915   81.8416   12.3204 C.3     1  UNL1        0.0512
     14 C          62.9445   83.1799   10.9400 C.2     1  UNL1        0.3217
     15 N          63.3357   81.8629   10.3380 N.pl3   1  UNL1       -0.2480
     16 N          62.7668   84.3828   10.0615 N.2     1  UNL1       -0.0692
     17 H          63.4524   81.0734   10.9145 H       1  UNL1        0.2882
     18 H          63.4759   81.7880    9.3664 H       1  UNL1        0.2882
     19 C          62.6427   82.9039   13.8659 C.3     1  UNL1        0.4305
     20 F          62.5544   82.5136   15.3116 F       1  UNL1       -0.1670
     21 F          61.5699   81.9100   13.5321 F       1  UNL1       -0.1670
     22 F          63.7154   83.8978   14.1997 F       1  UNL1       -0.1670
     23 C          64.3503   90.1401   13.3382 C.2     1  UNL1        0.2669
     24 O          64.1771   88.7695   13.9224 O.2     1  UNL1       -0.2682
     25 N          63.5672   90.5422   12.1237 N.am    1  UNL1       -0.2792
     26 H          63.6808   91.4418   11.7403 H       1  UNL1        0.1552
     27 C          63.9001   91.0762   16.1526 C.3     1  UNL1        0.0328
     28 C          65.0816   91.5767   15.3757 C.ar    1  UNL1        0.0010
     29 C          66.0379   92.5453   16.0059 C.ar    1  UNL1        0.0092
     30 C          67.2193   93.0459   15.2290 C.ar    1  UNL1        0.0873
     31 C          67.4444   92.5779   13.8218 C.ar    1  UNL1        0.1092
     32 N          66.4881   91.6093   13.1915 N.ar    1  UNL1       -0.2389
     33 C          65.3067   91.1087   13.9685 C.ar    1  UNL1        0.1308
     34 C          68.1757   94.0145   15.8593 C.1     1  UNL1        0.1020
     35 N          69.1320   94.9831   16.4896 N.1     1  UNL1       -0.1908
@<TRIPOS>BOND
     1    27    28    1
     2    28    29   ar
     3    29    30   ar
     4    30    34    1
     5    34    35    3
     6    30    31   ar
     7    31    32   ar
     8    32    33   ar
     9    33    23    1
    10    23    24    2
    11    23    25   am
    12    25     1    1
    13     1     2   ar
    14     2     3   ar
    15     3     4   ar
    16     4     5    1
    17     4     6   ar
    18     6     8    1
    19     8     9    1
    20     8    10    1
    21    10    11    1
    22    11    12    1
    23    12    13    1
    24    12    19    1
    25    19    20    1
    26    19    21    1
    27    19    22    1
    28    12    14    1
    29    14    15    1
    30    14    16    2
    31     6     7   ar
    32    33    28   ar
    33     7     1   ar
    34    16     8    1
    35    25    26    1
    36    15    17    1
    37    15    18    1
@<TRIPOS>MOLECULE
*****
 35 37 0 0 0
SMALL
GASTEIGER

@<TRIPOS>ATOM
      1 C          64.2741   88.5954   15.1591 C.ar    1  UNL1        0.0505
      2 C          63.4344   88.7278   16.3950 C.ar    1  UNL1        0.0170
      3 C          62.8460   87.5061   17.0363 C.ar    1  UNL1        0.0307
      4 C          63.0972   86.1521   16.4418 C.ar    1  UNL1        0.1402
      5 F          62.5088   84.9304   17.0831 F       1  UNL1       -0.2044
      6 C          63.9369   86.0198   15.2059 C.ar    1  UNL1        0.0528
      7 C          64.5253   87.2414   14.5645 C.ar    1  UNL1        0.0167
      8 C          64.1882   84.6657   14.6114 C.3     1  UNL1        0.2223
      9 C          65.5601   85.2607   14.4932 C.3     1  UNL1        0.0607
     10 C          62.7291   84.5409   14.9360 C.3     1  UNL1        0.1959
     11 O          61.9977   83.2688   14.6251 O.3     1  UNL1       -0.3357
     12 C          62.7254   82.1214   13.9896 C.3     1  UNL1        0.2740
     13 C          62.9767   80.7674   13.3950 C.3     1  UNL1        0.0512
     14 C          64.1845   82.2461   13.6649 C.2     1  UNL1        0.3217
     15 N          64.9123   81.0988   13.0293 N.pl3   1  UNL1       -0.2480
     16 N          64.9159   83.5184   13.9758 N.2     1  UNL1       -0.0692
     17 H          64.4323   80.2638   12.8253 H       1  UNL1        0.2882
     18 H          65.8699   81.1808   12.8163 H       1  UNL1        0.2882
     19 C          61.3535   81.5263   14.1078 C.3     1  UNL1        0.4305
     20 F          59.9817   80.9313   14.2260 F       1  UNL1       -0.1670
     21 F          61.7726   80.3854   13.2286 F       1  UNL1       -0.1670
     22 F          60.9345   82.6672   14.9868 F       1  UNL1       -0.1670
     23 C          64.1359   90.4995   13.3968 C.2     1  UNL1        0.2669
     24 O          62.8209   89.9602   12.9172 O.2     1  UNL1       -0.2682
     25 N          64.8625   89.8171   14.5177 N.am    1  UNL1       -0.2792
     26 H          65.7255   90.1710   14.8325 H       1  UNL1        0.1552
     27 C          63.5666   91.1019   10.5136 C.3     1  UNL1        0.0328
     28 C          64.4397   92.0224   11.3139 C.ar    1  UNL1        0.0010
     29 C          65.0281   93.2440   10.6726 C.ar    1  UNL1        0.0092
     30 C          65.9012   94.1645   11.4729 C.ar    1  UNL1        0.0873
     31 C          66.1858   93.8633   12.9145 C.ar    1  UNL1        0.1092
     32 N          65.5974   92.6416   13.5558 N.ar    1  UNL1       -0.2389
     33 C          64.7243   91.7212   12.7555 C.ar    1  UNL1        0.1308
     34 C          66.4896   95.3862   10.8316 C.1     1  UNL1        0.1020
     35 N          67.0779   96.6079   10.1903 N.1     1  UNL1       -0.1908
@<TRIPOS>BOND
     1    27    28    1
     2    28    29   ar
     3    29    30   ar
     4    30    34    1
     5    34    35    3
     6    30    31   ar
     7    31    32   ar
     8    32    33   ar
     9    33    23    1
    10    23    24    2
    11    23    25   am
    12    25     1    1
    13     1     2   ar
    14     2     3   ar
    15     3     4   ar
    16     4     5    1
    17     4     6   ar
    18     6     8    1
    19     8     9    1
    20     8    10    1
    21    10    11    1
    22    11    12    1
    23    12    13    1
    24    12    19    1
    25    19    20    1
    26    19    21    1
    27    19    22    1
    28    12    14    1
    29    14    15    1
    30    14    16    2
    31     6     7   ar
    32    33    28   ar
    33     7     1   ar
    34    16     8    1
    35    25    26    1
    36    15    17    1
    37    15    18    1
@<TRIPOS>MOLECULE
*****
 35 37 0 0 0
SMALL
GASTEIGER

@<TRIPOS>ATOM
      1 C          62.1720   87.6356   11.0926 C.ar    1  UNL1        0.0505
      2 C          61.4666   88.2178    9.9037 C.ar    1  UNL1        0.0170
      3 C          61.5736   89.6853    9.6126 C.ar    1  UNL1        0.0307
      4 C          62.3861   90.5707   10.5104 C.ar    1  UNL1        0.1402
      5 F          62.4931   92.0383   10.2192 F       1  UNL1       -0.2044
      6 C          63.0915   89.9885   11.6992 C.ar    1  UNL1        0.0528
      7 C          62.9844   88.5210   11.9904 C.ar    1  UNL1        0.0167
      8 C          63.9040   90.8740   12.5970 C.3     1  UNL1        0.2223
      9 C          63.1954   90.0414   13.6241 C.3     1  UNL1        0.0607
     10 C          64.3303   91.3990   11.2582 C.3     1  UNL1        0.1959
     11 O          65.3231   92.5202   11.1738 O.3     1  UNL1       -0.3357
     12 C          65.8895   93.1165   12.4283 C.3     1  UNL1        0.2740
     13 C          66.7019   94.0019   13.3260 C.3     1  UNL1        0.0512
     14 C          65.4631   92.5915   13.7671 C.2     1  UNL1        0.3217
     15 N          66.0294   93.1877   15.0216 N.pl3   1  UNL1       -0.2480
     16 N          64.4703   91.4702   13.8515 N.2     1  UNL1       -0.0692
     17 H          66.6810   93.9237   14.9662 H       1  UNL1        0.2882
     18 H          65.7495   92.8431   15.9003 H       1  UNL1        0.2882
     19 C          66.5980   93.9491   11.4012 C.3     1  UNL1        0.4305
     20 F          67.3066   94.7816   10.3741 F       1  UNL1       -0.1670
     21 F          67.2019   92.7086   10.8123 F       1  UNL1       -0.1670
     22 F          65.9942   95.1894   11.9901 F       1  UNL1       -0.1670
     23 C          62.8586   85.5659   12.5051 C.2     1  UNL1        0.2669
     24 O          63.7595   86.4314   13.3354 O.2     1  UNL1       -0.2682
     25 N          62.0649   86.1680   11.3837 N.am    1  UNL1       -0.2792
     26 H          61.4737   85.5999   10.8388 H       1  UNL1        0.1552
     27 C          63.6833   83.5612   10.4312 C.3     1  UNL1        0.0328
     28 C          63.1639   83.0960   11.7592 C.ar    1  UNL1        0.0010
     29 C          63.0568   81.6284   12.0504 C.ar    1  UNL1        0.0092
     30 C          62.5374   81.1632   13.3784 C.ar    1  UNL1        0.0873
     31 C          62.1251   82.1655   14.4154 C.ar    1  UNL1        0.1092
     32 N          62.2322   83.6331   14.1243 N.ar    1  UNL1       -0.2389
     33 C          62.7516   84.0983   12.7962 C.ar    1  UNL1        0.1308
     34 C          62.4303   79.6956   13.6696 C.1     1  UNL1        0.1020
     35 N          62.3233   78.2280   13.9607 N.1     1  UNL1       -0.1908
@<TRIPOS>BOND
     1    27    28    1
     2    28    29   ar
     3    29    30   ar
     4    30    34    1
     5    34    35    3
     6    30    31   ar
     7    31    32   ar
     8    32    33   ar
     9    33    23    1
    10    23    24    2
    11    23    25   am
    12    25     1    1
    13     1     2   ar
    14     2     3   ar
    15     3     4   ar
    16     4     5    1
    17     4     6   ar
    18     6     8    1
    19     8     9    1
    20     8    10    1
    21    10    11    1
    22    11    12    1
    23    12    13    1
    24    12    19    1
    25    19    20    1
    26    19    21    1
    27    19    22    1
    28    12    14    1
    29    14    15    1
    30    14    16    2
    31     6     7   ar
    32    33    28   ar
    33     7     1   ar
    34    16     8    1
    35    25    26    1
    36    15    17    1
    37    15    18    1
@<TRIPOS>MOLECULE
*****
 35 37 0 0 0
SMALL
GASTEIGER

@<TRIPOS>ATOM
      1 C          63.5605   86.2001   15.1671 C.ar    1  UNL1        0.0505
      2 C          63.0999   86.4128   16.5787 C.ar    1  UNL1        0.0170
      3 C          63.0835   87.7946   17.1621 C.ar    1  UNL1        0.0307
      4 C          63.5276   88.9636   16.3338 C.ar    1  UNL1        0.1402
      5 F          63.5112   90.3455   16.9172 F       1  UNL1       -0.2044
      6 C          63.9881   88.7509   14.9222 C.ar    1  UNL1        0.0528
      7 C          64.0046   87.3692   14.3388 C.ar    1  UNL1        0.0167
      8 C          64.4322   89.9201   14.0939 C.3     1  UNL1        0.2223
      9 C          65.2683   90.1371   15.3203 C.3     1  UNL1        0.0607
     10 C          63.4420   89.2971   13.1553 C.3     1  UNL1        0.1959
     11 O          63.1862   89.9185   11.8142 O.3     1  UNL1       -0.3357
     12 C          63.9206   91.1630   11.4119 C.3     1  UNL1        0.2740
     13 C          64.3648   92.3321   10.5838 C.3     1  UNL1        0.0512
     14 C          64.9109   91.7860   12.3506 C.2     1  UNL1        0.3217
     15 N          65.6454   93.0305   11.9484 N.pl3   1  UNL1       -0.2480
     16 N          65.1667   91.1645   13.6917 N.2     1  UNL1       -0.0692
     17 H          65.4775   93.4384   11.0683 H       1  UNL1        0.2882
     18 H          66.2953   93.4394   12.5646 H       1  UNL1        0.2882
     19 C          63.0846   90.9460   10.1855 C.3     1  UNL1        0.4305
     20 F          62.2485   90.7290    8.9592 F       1  UNL1       -0.1670
     21 F          62.8749   89.5146   10.5818 F       1  UNL1       -0.1670
     22 F          63.2943   92.3774    9.7894 F       1  UNL1       -0.1670
     23 C          62.8112   84.5253   13.3276 C.2     1  UNL1        0.2669
     24 O          62.0290   85.6141   12.6548 O.2     1  UNL1       -0.2682
     25 N          63.5769   84.8182   14.5837 N.am    1  UNL1       -0.2792
     26 H          64.0902   84.1036   15.0253 H       1  UNL1        0.1552
     27 C          63.6150   84.1142   10.4667 C.3     1  UNL1        0.0328
     28 C          63.2295   82.9379   11.3138 C.ar    1  UNL1        0.0010
     29 C          63.2459   81.5561   10.7305 C.ar    1  UNL1        0.0092
     30 C          62.8604   80.3798   11.5777 C.ar    1  UNL1        0.0873
     31 C          62.4585   80.5853   13.0081 C.ar    1  UNL1        0.1092
     32 N          62.4421   81.9671   13.5914 N.ar    1  UNL1       -0.2389
     33 C          62.8276   83.1434   12.7442 C.ar    1  UNL1        0.1308
     34 C          62.8768   78.9979   10.9943 C.1     1  UNL1        0.1020
     35 N          62.8932   77.6161   10.4110 N.1     1  UNL1       -0.1908
@<TRIPOS>BOND
     1    27    28    1
     2    28    29   ar
     3    29    30   ar
     4    30    34    1
     5    34    35    3
     6    30    31   ar
     7    31    32   ar
     8    32    33   ar
     9    33    23    1
    10    23    24    2
    11    23    25   am
    12    25     1    1
    13     1     2   ar
    14     2     3   ar
    15     3     4   ar
    16     4     5    1
    17     4     6   ar
    18     6     8    1
    19     8     9    1
    20     8    10    1
    21    10    11    1
    22    11    12    1
    23    12    13    1
    24    12    19    1
    25    19    20    1
    26    19    21    1
    27    19    22    1
    28    12    14    1
    29    14    15    1
    30    14    16    2
    31     6     7   ar
    32    33    28   ar
    33     7     1   ar
    34    16     8    1
    35    25    26    1
    36    15    17    1
    37    15    18    1
@<TRIPOS>MOLECULE
*****
 35 37 0 0 0
SMALL
GASTEIGER

@<TRIPOS>ATOM
      1 C          62.8222   87.8605   11.6448 C.ar    1  UNL1        0.0505
      2 C          62.5379   88.5949   10.3682 C.ar    1  UNL1        0.0170
      3 C          62.7485   90.0781   10.2933 C.ar    1  UNL1        0.0307
      4 C          63.2434   90.8269   11.4951 C.ar    1  UNL1        0.1402
      5 F          63.4540   92.3102   11.4202 F       1  UNL1       -0.2044
      6 C          63.5277   90.0925   12.7717 C.ar    1  UNL1        0.0528
      7 C          63.3171   88.6093   12.8466 C.ar    1  UNL1        0.0167
      8 C          64.0227   90.8414   13.9735 C.3     1  UNL1        0.2223
      9 C          62.6001   90.6009   14.3841 C.3     1  UNL1        0.0607
     10 C          65.2733   90.8218   13.1456 C.3     1  UNL1        0.1959
     11 O          66.5248   91.4675   13.6621 O.3     1  UNL1       -0.3357
     12 C          66.5257   92.1329   15.0064 C.3     1  UNL1        0.2740
     13 C          67.0205   92.8817   16.2082 C.3     1  UNL1        0.0512
     14 C          65.2750   92.1525   15.8343 C.2     1  UNL1        0.3217
     15 N          65.2758   92.8178   17.1787 N.pl3   1  UNL1       -0.2480
     16 N          64.0234   91.5067   15.3179 N.2     1  UNL1       -0.0692
     17 H          66.0972   93.2416   17.5177 H       1  UNL1        0.2882
     18 H          64.4549   92.8307   17.7220 H       1  UNL1        0.2882
     19 C          67.9482   92.3733   14.5959 C.3     1  UNL1        0.4305
     20 F          69.3708   92.6138   14.1854 F       1  UNL1       -0.1670
     21 F          68.4223   91.7662   15.8831 F       1  UNL1       -0.1670
     22 F          67.4741   92.9804   13.3088 F       1  UNL1       -0.1670
     23 C          63.2039   85.5917   12.8520 C.2     1  UNL1        0.2669
     24 O          64.0068   86.2895   13.9095 O.2     1  UNL1       -0.2682
     25 N          62.6116   86.3772   11.7196 N.am    1  UNL1       -0.2792
     26 H          62.0846   85.9192   11.0255 H       1  UNL1        0.1552
     27 C          62.2584   84.3379   15.4082 C.3     1  UNL1        0.0328
     28 C          62.5205   83.4816   14.2049 C.ar    1  UNL1        0.0010
     29 C          62.3099   81.9983   14.2796 C.ar    1  UNL1        0.0092
     30 C          62.5720   81.1420   13.0763 C.ar    1  UNL1        0.0873
     31 C          63.0448   81.7688   11.7983 C.ar    1  UNL1        0.1092
     32 N          63.2554   83.2521   11.7235 N.ar    1  UNL1       -0.2389
     33 C          62.9932   84.1084   12.9268 C.ar    1  UNL1        0.1308
     34 C          62.3614   79.6587   13.1512 C.1     1  UNL1        0.1020
     35 N          62.1508   78.1754   13.2260 N.1     1  UNL1       -0.1908
@<TRIPOS>BOND
     1    27    28    1
     2    28    29   ar
     3    29    30   ar
     4    30    34    1
     5    34    35    3
     6    30    31   ar
     7    31    32   ar
     8    32    33   ar
     9    33    23    1
    10    23    24    2
    11    23    25   am
    12    25     1    1
    13     1     2   ar
    14     2     3   ar
    15     3     4   ar
    16     4     5    1
    17     4     6   ar
    18     6     8    1
    19     8     9    1
    20     8    10    1
    21    10    11    1
    22    11    12    1
    23    12    13    1
    24    12    19    1
    25    19    20    1
    26    19    21    1
    27    19    22    1
    28    12    14    1
    29    14    15    1
    30    14    16    2
    31     6     7   ar
    32    33    28   ar
    33     7     1   ar
    34    16     8    1
    35    25    26    1
    36    15    17    1
    37    15    18    1
@<TRIPOS>MOLECULE
*****
 35 37 0 0 0
SMALL
GASTEIGER

@<TRIPOS>ATOM
      1 C          61.2084   87.5413   11.1371 C.ar    1  UNL1        0.0505
      2 C          59.8408   88.0839   11.4291 C.ar    1  UNL1        0.0170
      3 C          59.6515   89.5530   11.6652 C.ar    1  UNL1        0.0307
      4 C          60.8298   90.4795   11.6094 C.ar    1  UNL1        0.1402
      5 F          60.6405   91.9487   11.8455 F       1  UNL1       -0.2044
      6 C          62.1974   89.9369   11.3173 C.ar    1  UNL1        0.0528
      7 C          62.3867   88.4678   11.0812 C.ar    1  UNL1        0.0167
      8 C          63.3757   90.8635   11.2615 C.3     1  UNL1        0.2223
      9 C          62.9470   90.9003    9.8245 C.3     1  UNL1        0.0607
     10 C          63.3952   90.5049   12.7178 C.3     1  UNL1        0.1959
     11 O          64.4441   91.0857   13.6192 O.3     1  UNL1       -0.3357
     12 C          65.4735   92.0250   13.0642 C.3     1  UNL1        0.2740
     13 C          66.6517   92.9516   13.0083 C.3     1  UNL1        0.0512
     14 C          65.4540   92.3836   11.6079 C.2     1  UNL1        0.3217
     15 N          66.4833   93.3230   11.0529 N.pl3   1  UNL1       -0.2480
     16 N          64.4050   91.8029   10.7064 N.2     1  UNL1       -0.0692
     17 H          67.1718   93.7042   11.6445 H       1  UNL1        0.2882
     18 H          66.4705   93.5583   10.0970 H       1  UNL1        0.2882
     19 C          65.9022   91.9882   14.5012 C.3     1  UNL1        0.4305
     20 F          66.3309   91.9514   15.9382 F       1  UNL1       -0.1670
     21 F          65.7571   90.4952   14.5063 F       1  UNL1       -0.1670
     22 F          66.0473   93.4811   14.4961 F       1  UNL1       -0.1670
     23 C          62.3301   85.2861   11.7743 C.2     1  UNL1        0.2669
     24 O          63.0733   85.9693   12.8838 O.2     1  UNL1       -0.2682
     25 N          61.3976   86.0721   10.9010 N.am    1  UNL1       -0.2792
     26 H          60.9098   85.6237   10.1728 H       1  UNL1        0.1552
     27 C          63.6113   84.3274    9.2367 C.3     1  UNL1        0.0328
     28 C          63.1599   83.3376   10.2694 C.ar    1  UNL1        0.0010
     29 C          63.3492   81.8685   10.0333 C.ar    1  UNL1        0.0092
     30 C          62.8978   80.8786   11.0660 C.ar    1  UNL1        0.0873
     31 C          62.2572   81.3579   12.3348 C.ar    1  UNL1        0.1092
     32 N          62.0680   82.8271   12.5709 N.ar    1  UNL1       -0.2389
     33 C          62.5194   83.8169   11.5382 C.ar    1  UNL1        0.1308
     34 C          63.0871   79.4094   10.8299 C.1     1  UNL1        0.1020
     35 N          63.2764   77.9403   10.5938 N.1     1  UNL1       -0.1908
@<TRIPOS>BOND
     1    27    28    1
     2    28    29   ar
     3    29    30   ar
     4    30    34    1
     5    34    35    3
     6    30    31   ar
     7    31    32   ar
     8    32    33   ar
     9    33    23    1
    10    23    24    2
    11    23    25   am
    12    25     1    1
    13     1     2   ar
    14     2     3   ar
    15     3     4   ar
    16     4     5    1
    17     4     6   ar
    18     6     8    1
    19     8     9    1
    20     8    10    1
    21    10    11    1
    22    11    12    1
    23    12    13    1
    24    12    19    1
    25    19    20    1
    26    19    21    1
    27    19    22    1
    28    12    14    1
    29    14    15    1
    30    14    16    2
    31     6     7   ar
    32    33    28   ar
    33     7     1   ar
    34    16     8    1
    35    25    26    1
    36    15    17    1
    37    15    18    1
@<TRIPOS>MOLECULE
*****
 35 37 0 0 0
SMALL
GASTEIGER

@<TRIPOS>ATOM
      1 C          72.7323   74.5882   14.8368 C.ar    1  UNL1        0.0505
      2 C          72.8398   74.7412   16.3251 C.ar    1  UNL1        0.0170
      3 C          72.5100   73.5863   17.2236 C.ar    1  UNL1        0.0307
      4 C          72.0725   72.2784   16.6338 C.ar    1  UNL1        0.1402
      5 F          71.7426   71.1234   17.5323 F       1  UNL1       -0.2044
      6 C          71.9650   72.1254   15.1455 C.ar    1  UNL1        0.0528
      7 C          72.2948   73.2803   14.2470 C.ar    1  UNL1        0.0167
      8 C          71.5275   70.8173   14.5557 C.3     1  UNL1        0.2223
      9 C          72.6922   70.3548   15.3801 C.3     1  UNL1        0.0607
     10 C          70.5148   71.7341   13.9362 C.3     1  UNL1        0.1959
     11 O          69.4690   71.1822   13.0132 O.3     1  UNL1       -0.3357
     12 C          69.4361   69.7136   12.7097 C.3     1  UNL1        0.2740
     13 C          68.9987   68.4056   12.1200 C.3     1  UNL1        0.0512
     14 C          70.4488   68.7969   13.3292 C.2     1  UNL1        0.3217
     15 N          70.4160   67.3283   13.0258 N.pl3   1  UNL1       -0.2480
     16 N          71.4946   69.3487   14.2523 N.2     1  UNL1       -0.0692
     17 H          69.7297   66.9660   12.4200 H       1  UNL1        0.2882
     18 H          71.0807   66.7266   13.4325 H       1  UNL1        0.2882
     19 C          68.2714   70.1761   11.8853 C.3     1  UNL1        0.4305
     20 F          67.1067   70.6386   11.0609 F       1  UNL1       -0.1670
     21 F          67.3843   69.1895   12.5851 F       1  UNL1       -0.1670
     22 F          69.1585   71.1626   11.1855 F       1  UNL1       -0.1670
     23 C          71.9834   76.6947   13.5133 C.2     1  UNL1        0.2669
     24 O          70.5747   76.4914   13.9867 O.2     1  UNL1       -0.2682
     25 N          73.0622   75.7432   13.9383 N.am    1  UNL1       -0.2792
     26 H          73.9868   75.8767   13.6276 H       1  UNL1        0.1552
     27 C          72.7152   79.3533   14.6951 C.3     1  UNL1        0.0328
     28 C          72.6792   79.1790   13.2057 C.ar    1  UNL1        0.0010
     29 C          73.0091   80.3339   12.3072 C.ar    1  UNL1        0.0092
     30 C          72.9731   80.1595   10.8178 C.ar    1  UNL1        0.0873
     31 C          72.6072   78.8303   10.2269 C.ar    1  UNL1        0.1092
     32 N          72.2773   77.6754   11.1254 N.ar    1  UNL1       -0.2389
     33 C          72.3133   77.8497   12.6148 C.ar    1  UNL1        0.1308
     34 C          73.3030   81.3145    9.9193 C.1     1  UNL1        0.1020
     35 N          73.6329   82.4695    9.0209 N.1     1  UNL1       -0.1908
@<TRIPOS>BOND
     1    27    28    1
     2    28    29   ar
     3    29    30   ar
     4    30    34    1
     5    34    35    3
     6    30    31   ar
     7    31    32   ar
     8    32    33   ar
     9    33    23    1
    10    23    24    2
    11    23    25   am
    12    25     1    1
    13     1     2   ar
    14     2     3   ar
    15     3     4   ar
    16     4     5    1
    17     4     6   ar
    18     6     8    1
    19     8     9    1
    20     8    10    1
    21    10    11    1
    22    11    12    1
    23    12    13    1
    24    12    19    1
    25    19    20    1
    26    19    21    1
    27    19    22    1
    28    12    14    1
    29    14    15    1
    30    14    16    2
    31     6     7   ar
    32    33    28   ar
    33     7     1   ar
    34    16     8    1
    35    25    26    1
    36    15    17    1
    37    15    18    1
