@<TRIPOS>MOLECULE
*****
 25 27 0 0 0
SMALL
GASTEIGER

@<TRIPOS>ATOM
      1 N          62.9198   88.8871   11.3648 N.am    1  UNL1       -0.2654
      2 C          61.4288   88.8917   11.2015 C.2     1  UNL1        0.2453
      3 O          60.5486   89.2550   12.3605 O.2     1  UNL1       -0.2730
      4 H          63.4976   88.6486   10.6041 H       1  UNL1        0.1564
      5 C          64.6370   90.4808   14.4594 C.ar    1  UNL1        0.1549
      6 C          64.1588   90.5615   13.0399 C.ar    1  UNL1        0.0733
      7 C          63.5307   89.2459   12.6869 C.ar    1  UNL1        0.1760
      8 N          63.6207   88.3521   13.8882 N.ar    1  UNL1       -0.0621
      9 O          64.3045   89.1153   14.9836 O.2     1  UNL1       -0.3565
     10 C          66.4207   91.5980   14.1952 C.3     1  UNL1        0.0076
     11 C          65.3267   91.5737   15.2210 C.3     1  UNL1        0.0539
     12 C          64.2326   91.5493   16.2468 C.3     1  UNL1        0.0076
     13 C          66.0164   92.6666   15.9825 C.3     1  UNL1        0.0076
     14 C          60.8179   88.5329    9.8794 C.3     1  UNL1        0.1502
     15 C          59.9096   89.4034    9.0626 C.3     1  UNL1        0.0309
     16 C          59.5384   88.6491    7.8203 C.3     1  UNL1        0.0236
     17 C          60.2173   87.3124    7.8693 C.3     1  UNL1        0.0912
     18 N          61.0081   87.2406    9.1419 N.pl3   1  UNL1       -0.3015
     19 C          61.8426   86.0802    9.5971 C.ar    1  UNL1        0.0482
     20 C          62.8023   85.4280    8.6466 C.ar    1  UNL1        0.0154
     21 C          63.6367   84.2676    9.1019 C.ar    1  UNL1        0.0127
     22 C          63.5114   83.7595   10.5077 C.ar    1  UNL1        0.0578
     23 CL         64.3459   82.5991   10.9629 Cl      1  UNL1       -0.0822
     24 C          62.5517   84.4118   11.4581 C.ar    1  UNL1        0.0127
     25 C          61.7173   85.5721   11.0029 C.ar    1  UNL1        0.0154
@<TRIPOS>BOND
     1    10    11    1
     2    11    12    1
     3    11    13    1
     4    11     5    1
     5     5     6   ar
     6     6     7   ar
     7     7     1    1
     8     1     2   am
     9     2     3    2
    10    14     2    1
    11    14    15    1
    12    15    16    1
    13    16    17    1
    14    17    18    1
    15    18    19    1
    16    19    20   ar
    17    20    21   ar
    18    21    22   ar
    19    22    23    1
    20    22    24   ar
    21    24    25   ar
    22     7     8   ar
    23     8     9   ar
    24     9     5   ar
    25    18    14    1
    26    25    19   ar
    27     1     4    1
@<TRIPOS>MOLECULE
*****
 25 27 0 0 0
SMALL
GASTEIGER

@<TRIPOS>ATOM
      1 N          63.1646   90.0763   12.4041 N.am    1  UNL1       -0.2654
      2 C          64.0971   91.2223   12.1453 C.2     1  UNL1        0.2453
      3 O          64.0747   91.9224   10.8189 O.2     1  UNL1       -0.2730
      4 H          63.1792   89.6167   13.2746 H       1  UNL1        0.1564
      5 C          61.1113   88.2951    9.6334 C.ar    1  UNL1        0.1549
      6 C          62.2487   88.3180   10.6112 C.ar    1  UNL1        0.0733
      7 C          62.2098   89.6304   11.3366 C.ar    1  UNL1        0.1760
      8 N          61.0485   90.4185   10.8072 N.ar    1  UNL1       -0.0621
      9 O          60.3696   89.5932    9.7546 O.2     1  UNL1       -0.3565
     10 C          59.6005   87.9503    8.1848 C.3     1  UNL1        0.0076
     11 C          60.7749   87.1713    8.6985 C.3     1  UNL1        0.0539
     12 C          61.9493   86.3923    9.2123 C.3     1  UNL1        0.0076
     13 C          60.4384   86.0475    7.7637 C.3     1  UNL1        0.0076
     14 C          65.0519   91.6682   13.2127 C.3     1  UNL1        0.1502
     15 C          65.0687   91.1926   14.6352 C.3     1  UNL1        0.0309
     16 C          66.1847   91.8985   15.3468 C.3     1  UNL1        0.0236
     17 C          66.8576   92.8103   14.3640 C.3     1  UNL1        0.0912
     18 N          66.1575   92.6680   13.0451 N.pl3   1  UNL1       -0.3015
     19 C          66.5024   93.3974   11.7805 C.ar    1  UNL1        0.0482
     20 C          66.1090   94.8351   11.6129 C.ar    1  UNL1        0.0154
     21 C          66.4539   95.5645   10.3484 C.ar    1  UNL1        0.0127
     22 C          67.1922   94.8561    9.2515 C.ar    1  UNL1        0.0578
     23 CL         67.5371   95.5855    7.9869 Cl      1  UNL1       -0.0822
     24 C          67.5855   93.4183    9.4191 C.ar    1  UNL1        0.0127
     25 C          67.2406   92.6890   10.6836 C.ar    1  UNL1        0.0154
@<TRIPOS>BOND
     1    10    11    1
     2    11    12    1
     3    11    13    1
     4    11     5    1
     5     5     6   ar
     6     6     7   ar
     7     7     1    1
     8     1     2   am
     9     2     3    2
    10    14     2    1
    11    14    15    1
    12    15    16    1
    13    16    17    1
    14    17    18    1
    15    18    19    1
    16    19    20   ar
    17    20    21   ar
    18    21    22   ar
    19    22    23    1
    20    22    24   ar
    21    24    25   ar
    22     7     8   ar
    23     8     9   ar
    24     9     5   ar
    25    18    14    1
    26    25    19   ar
    27     1     4    1
@<TRIPOS>MOLECULE
*****
 25 27 0 0 0
SMALL
GASTEIGER

@<TRIPOS>ATOM
      1 N          63.1089   90.3207   10.8432 N.am    1  UNL1       -0.2654
      2 C          63.0786   90.3324   12.3428 C.2     1  UNL1        0.2453
      3 O          61.9302   89.7035   13.0746 O.2     1  UNL1       -0.2730
      4 H          63.8626   90.7335   10.3628 H       1  UNL1        0.1564
      5 C          60.6830   88.0738    8.8107 C.ar    1  UNL1        0.1549
      6 C          62.0015   88.2994    9.4895 C.ar    1  UNL1        0.0733
      7 C          61.9908   89.6802   10.0754 C.ar    1  UNL1        0.1760
      8 N          60.6658   90.3079    9.7587 N.ar    1  UNL1       -0.0621
      9 O          59.8575   89.3151    8.9770 O.2     1  UNL1       -0.3565
     10 C          61.4881   86.1228    8.5977 C.3     1  UNL1        0.0076
     11 C          60.2636   86.8259    8.0917 C.3     1  UNL1        0.0539
     12 C          59.0390   87.5289    7.5856 C.3     1  UNL1        0.0076
     13 C          59.8442   85.5780    7.3727 C.3     1  UNL1        0.0076
     14 C          64.1967   90.9730   13.1106 C.3     1  UNL1        0.1502
     15 C          64.9924   92.1683   12.6770 C.3     1  UNL1        0.0309
     16 C          66.0029   92.4648   13.7452 C.3     1  UNL1        0.0236
     17 C          65.8317   91.4527   14.8390 C.3     1  UNL1        0.0912
     18 N          64.7154   90.5307   14.4468 N.pl3   1  UNL1       -0.3015
     19 C          64.2069   89.3702   15.2498 C.ar    1  UNL1        0.0482
     20 C          64.4952   87.9669   14.8052 C.ar    1  UNL1        0.0154
     21 C          63.9868   86.8065   15.6082 C.ar    1  UNL1        0.0127
     22 C          63.1901   87.0493   16.8558 C.ar    1  UNL1        0.0578
     23 CL         62.6817   85.8888   17.6588 Cl      1  UNL1       -0.0822
     24 C          62.9019   88.4526   17.3003 C.ar    1  UNL1        0.0127
     25 C          63.4103   89.6130   16.4974 C.ar    1  UNL1        0.0154
@<TRIPOS>BOND
     1    10    11    1
     2    11    12    1
     3    11    13    1
     4    11     5    1
     5     5     6   ar
     6     6     7   ar
     7     7     1    1
     8     1     2   am
     9     2     3    2
    10    14     2    1
    11    14    15    1
    12    15    16    1
    13    16    17    1
    14    17    18    1
    15    18    19    1
    16    19    20   ar
    17    20    21   ar
    18    21    22   ar
    19    22    23    1
    20    22    24   ar
    21    24    25   ar
    22     7     8   ar
    23     8     9   ar
    24     9     5   ar
    25    18    14    1
    26    25    19   ar
    27     1     4    1
@<TRIPOS>MOLECULE
*****
 25 27 0 0 0
SMALL
GASTEIGER

@<TRIPOS>ATOM
      1 N          61.8423   85.2985   11.9836 N.am    1  UNL1       -0.2654
      2 C          62.7407   84.2108   11.4739 C.2     1  UNL1        0.2453
      3 O          63.3650   84.3290   10.1151 O.2     1  UNL1       -0.2730
      4 H          61.4325   85.2209   12.8754 H       1  UNL1        0.1564
      5 C          60.6982   87.9492    9.3894 C.ar    1  UNL1        0.1549
      6 C          60.6815   86.5483    9.9256 C.ar    1  UNL1        0.0733
      7 C          61.5683   86.5043   11.1346 C.ar    1  UNL1        0.1760
      8 N          62.1330   87.8779   11.3455 N.ar    1  UNL1       -0.0621
      9 O          61.5952   88.7708   10.2669 O.2     1  UNL1       -0.3565
     10 C          59.6776   87.0251    7.7756 C.3     1  UNL1        0.0076
     11 C          59.9492   88.4418    8.1867 C.3     1  UNL1        0.0539
     12 C          60.2208   89.8585    8.5978 C.3     1  UNL1        0.0076
     13 C          59.2002   88.9344    6.9840 C.3     1  UNL1        0.0076
     14 C          63.0147   83.0049   12.3229 C.3     1  UNL1        0.1502
     15 C          63.1090   81.5885   11.8383 C.3     1  UNL1        0.0309
     16 C          63.3951   80.7119   13.0214 C.3     1  UNL1        0.0236
     17 C          63.4776   81.5866   14.2372 C.3     1  UNL1        0.0912
     18 N          63.2425   83.0037   13.8055 N.pl3   1  UNL1       -0.3015
     19 C          63.2362   84.2083   14.6994 C.ar    1  UNL1        0.0482
     20 C          64.2628   85.2859   14.5131 C.ar    1  UNL1        0.0154
     21 C          64.2566   86.4904   15.4070 C.ar    1  UNL1        0.0127
     22 C          63.2236   86.6173   16.4872 C.ar    1  UNL1        0.0578
     23 CL         63.2174   87.8219   17.3812 Cl      1  UNL1       -0.0822
     24 C          62.1970   85.5397   16.6736 C.ar    1  UNL1        0.0127
     25 C          62.2033   84.3352   15.7797 C.ar    1  UNL1        0.0154
@<TRIPOS>BOND
     1    10    11    1
     2    11    12    1
     3    11    13    1
     4    11     5    1
     5     5     6   ar
     6     6     7   ar
     7     7     1    1
     8     1     2   am
     9     2     3    2
    10    14     2    1
    11    14    15    1
    12    15    16    1
    13    16    17    1
    14    17    18    1
    15    18    19    1
    16    19    20   ar
    17    20    21   ar
    18    21    22   ar
    19    22    23    1
    20    22    24   ar
    21    24    25   ar
    22     7     8   ar
    23     8     9   ar
    24     9     5   ar
    25    18    14    1
    26    25    19   ar
    27     1     4    1
@<TRIPOS>MOLECULE
*****
 25 27 0 0 0
SMALL
GASTEIGER

@<TRIPOS>ATOM
      1 N          63.8814   86.8231   13.3601 N.am    1  UNL1       -0.2654
      2 C          63.8382   87.9662   14.3304 C.2     1  UNL1        0.2453
      3 O          63.5272   87.7118   15.7756 O.2     1  UNL1       -0.2730
      4 H          64.0855   86.9901   12.4116 H       1  UNL1        0.1564
      5 C          63.1172   83.0501   13.8552 C.ar    1  UNL1        0.1549
      6 C          63.3199   84.2399   12.9645 C.ar    1  UNL1        0.0733
      7 C          63.6135   85.4257   13.8350 C.ar    1  UNL1        0.1760
      8 N          63.5922   84.9688   15.2635 N.ar    1  UNL1       -0.0621
      9 O          63.2855   83.5006   15.2760 O.2     1  UNL1       -0.3565
     10 C          61.6376   81.6125   14.3493 C.3     1  UNL1        0.0076
     11 C          62.8015   81.6547   13.4042 C.3     1  UNL1        0.0539
     12 C          63.9655   81.6969   12.4590 C.3     1  UNL1        0.0076
     13 C          62.4859   80.2594   12.9532 C.3     1  UNL1        0.0076
     14 C          64.1061   89.3636   13.8556 C.3     1  UNL1        0.1502
     15 C          65.0759   90.3315   14.4661 C.3     1  UNL1        0.0309
     16 C          65.0203   91.6046   13.6747 C.3     1  UNL1        0.0236
     17 C          64.0163   91.4235   12.5752 C.3     1  UNL1        0.0912
     18 N          63.4512   90.0385   12.6870 N.pl3   1  UNL1       -0.3015
     19 C          62.4135   89.4343   11.7879 C.ar    1  UNL1        0.0482
     20 C          60.9570   89.6605   12.0658 C.ar    1  UNL1        0.0154
     21 C          59.9193   89.0564   11.1668 C.ar    1  UNL1        0.0127
     22 C          60.3382   88.2261    9.9899 C.ar    1  UNL1        0.0578
     23 CL         59.3005   87.6220    9.0909 Cl      1  UNL1       -0.0822
     24 C          61.7947   87.9999    9.7120 C.ar    1  UNL1        0.0127
     25 C          62.8324   88.6040   10.6110 C.ar    1  UNL1        0.0154
@<TRIPOS>BOND
     1    10    11    1
     2    11    12    1
     3    11    13    1
     4    11     5    1
     5     5     6   ar
     6     6     7   ar
     7     7     1    1
     8     1     2   am
     9     2     3    2
    10    14     2    1
    11    14    15    1
    12    15    16    1
    13    16    17    1
    14    17    18    1
    15    18    19    1
    16    19    20   ar
    17    20    21   ar
    18    21    22   ar
    19    22    23    1
    20    22    24   ar
    21    24    25   ar
    22     7     8   ar
    23     8     9   ar
    24     9     5   ar
    25    18    14    1
    26    25    19   ar
    27     1     4    1
@<TRIPOS>MOLECULE
*****
 25 27 0 0 0
SMALL
GASTEIGER

@<TRIPOS>ATOM
      1 N          63.7143   87.5936   13.0949 N.am    1  UNL1       -0.2654
      2 C          63.6188   86.3472   13.9239 C.2     1  UNL1        0.2453
      3 O          63.6247   86.4400   15.4210 O.2     1  UNL1       -0.2730
      4 H          63.7104   87.5327   12.1123 H       1  UNL1        0.1564
      5 C          64.7123   90.9011   14.8639 C.ar    1  UNL1        0.1549
      6 C          65.0737   89.5702   14.2737 C.ar    1  UNL1        0.0733
      7 C          63.8156   88.9328   13.7629 C.ar    1  UNL1        0.1760
      8 N          62.6768   89.8697   14.0373 N.ar    1  UNL1       -0.0621
      9 O          63.2309   91.0861   14.7178 O.2     1  UNL1       -0.3565
     10 C          66.6711   91.5819   14.4172 C.3     1  UNL1        0.0076
     11 C          65.6650   91.8758   15.4902 C.3     1  UNL1        0.0539
     12 C          64.6590   92.1697   16.5633 C.3     1  UNL1        0.0076
     13 C          66.6178   92.8505   16.1165 C.3     1  UNL1        0.0076
     14 C          63.5174   85.0080   13.2559 C.3     1  UNL1        0.1502
     15 C          64.0753   83.7175   13.7787 C.3     1  UNL1        0.0309
     16 C          63.7431   82.6361   12.7937 C.3     1  UNL1        0.0236
     17 C          62.9798   83.2582   11.6622 C.3     1  UNL1        0.0912
     18 N          62.8403   84.7242   11.9478 N.pl3   1  UNL1       -0.3015
     19 C          62.1457   85.7298   11.0781 C.ar    1  UNL1        0.0482
     20 C          61.1106   86.6422   11.6662 C.ar    1  UNL1        0.0154
     21 C          60.4160   87.6477   10.7965 C.ar    1  UNL1        0.0127
     22 C          60.7566   87.7408    9.3387 C.ar    1  UNL1        0.0578
     23 CL         60.0620   88.7465    8.4689 Cl      1  UNL1       -0.0822
     24 C          61.7918   86.8285    8.7505 C.ar    1  UNL1        0.0127
     25 C          62.4863   85.8229    9.6203 C.ar    1  UNL1        0.0154
@<TRIPOS>BOND
     1    10    11    1
     2    11    12    1
     3    11    13    1
     4    11     5    1
     5     5     6   ar
     6     6     7   ar
     7     7     1    1
     8     1     2   am
     9     2     3    2
    10    14     2    1
    11    14    15    1
    12    15    16    1
    13    16    17    1
    14    17    18    1
    15    18    19    1
    16    19    20   ar
    17    20    21   ar
    18    21    22   ar
    19    22    23    1
    20    22    24   ar
    21    24    25   ar
    22     7     8   ar
    23     8     9   ar
    24     9     5   ar
    25    18    14    1
    26    25    19   ar
    27     1     4    1
@<TRIPOS>MOLECULE
*****
 25 27 0 0 0
SMALL
GASTEIGER

@<TRIPOS>ATOM
      1 N          61.5820   86.3106   11.5560 N.am    1  UNL1       -0.2654
      2 C          61.7939   86.4513   10.0777 C.2     1  UNL1        0.2453
      3 O          62.7792   85.5662    9.3737 O.2     1  UNL1       -0.2730
      4 H          60.9354   86.8915   12.0181 H       1  UNL1        0.1564
      5 C          63.1352   83.1613   13.2098 C.ar    1  UNL1        0.1549
      6 C          62.1459   83.8003   12.2807 C.ar    1  UNL1        0.0733
      7 C          62.3555   85.2847   12.3302 C.ar    1  UNL1        0.1760
      8 N          63.4742   85.5632   13.2898 N.ar    1  UNL1       -0.0621
      9 O          63.9561   84.2508   13.8334 O.2     1  UNL1       -0.3565
     10 C          64.5394   81.6703   12.6578 C.3     1  UNL1        0.0076
     11 C          63.2783   81.6909   13.4696 C.3     1  UNL1        0.0539
     12 C          62.0172   81.7115   14.2815 C.3     1  UNL1        0.0076
     13 C          63.4215   80.2205   13.7294 C.3     1  UNL1        0.0076
     14 C          61.0205   87.4772    9.3035 C.3     1  UNL1        0.1502
     15 C          59.9793   87.1948    8.2613 C.3     1  UNL1        0.0309
     16 C          59.4678   88.5087    7.7492 C.3     1  UNL1        0.0236
     17 C          60.1928   89.6030    8.4750 C.3     1  UNL1        0.0912
     18 N          61.1524   88.9655    9.4356 N.pl3   1  UNL1       -0.3015
     19 C          62.0810   89.6893   10.3652 C.ar    1  UNL1        0.0482
     20 C          62.9405   90.8047    9.8484 C.ar    1  UNL1        0.0154
     21 C          63.8690   91.5284   10.7779 C.ar    1  UNL1        0.0127
     22 C          63.9380   91.1368   12.2242 C.ar    1  UNL1        0.0578
     23 CL         64.8665   91.8606   13.1538 Cl      1  UNL1       -0.0822
     24 C          63.0784   90.0214   12.7410 C.ar    1  UNL1        0.0127
     25 C          62.1499   89.2977   11.8115 C.ar    1  UNL1        0.0154
@<TRIPOS>BOND
     1    10    11    1
     2    11    12    1
     3    11    13    1
     4    11     5    1
     5     5     6   ar
     6     6     7   ar
     7     7     1    1
     8     1     2   am
     9     2     3    2
    10    14     2    1
    11    14    15    1
    12    15    16    1
    13    16    17    1
    14    17    18    1
    15    18    19    1
    16    19    20   ar
    17    20    21   ar
    18    21    22   ar
    19    22    23    1
    20    22    24   ar
    21    24    25   ar
    22     7     8   ar
    23     8     9   ar
    24     9     5   ar
    25    18    14    1
    26    25    19   ar
    27     1     4    1
@<TRIPOS>MOLECULE
*****
 25 27 0 0 0
SMALL
GASTEIGER

@<TRIPOS>ATOM
      1 N          64.0467   88.2664   14.2199 N.am    1  UNL1       -0.2654
      2 C          63.9694   89.7102   13.8207 C.2     1  UNL1        0.2453
      3 O          63.3938   90.0902   12.4887 O.2     1  UNL1       -0.2730
      4 H          64.4245   88.0170   15.0941 H       1  UNL1        0.1564
      5 C          63.0872   85.0387   12.2894 C.ar    1  UNL1        0.1549
      6 C          63.7499   85.7249   13.4471 C.ar    1  UNL1        0.0733
      7 C          63.5484   87.2026   13.2871 C.ar    1  UNL1        0.1760
      8 N          62.7613   87.4298   12.0306 N.ar    1  UNL1       -0.0621
      9 O          62.4762   86.0925   11.4140 O.2     1  UNL1       -0.3565
     10 C          63.4326   83.7794   10.6178 C.3     1  UNL1        0.0076
     11 C          63.0432   83.5587   12.0494 C.3     1  UNL1        0.0539
     12 C          62.6538   83.3381   13.4811 C.3     1  UNL1        0.0076
     13 C          62.9992   82.0787   11.8093 C.3     1  UNL1        0.0076
     14 C          64.4677   90.7740   14.7534 C.3     1  UNL1        0.1502
     15 C          64.0263   90.9800   16.1721 C.3     1  UNL1        0.0309
     16 C          64.7807   92.1519   16.7268 C.3     1  UNL1        0.0236
     17 C          65.6883   92.6702   15.6508 C.3     1  UNL1        0.0912
     18 N          65.4948   91.8186   14.4313 N.pl3   1  UNL1       -0.3015
     19 C          66.2041   91.9828   13.1197 C.ar    1  UNL1        0.0482
     20 C          65.4460   92.4417   11.9094 C.ar    1  UNL1        0.0154
     21 C          66.1552   92.6059   10.5980 C.ar    1  UNL1        0.0127
     22 C          67.6225   92.3112   10.4967 C.ar    1  UNL1        0.0578
     23 CL         68.3317   92.4753    9.1851 Cl      1  UNL1       -0.0822
     24 C          68.3805   91.8523   11.7069 C.ar    1  UNL1        0.0127
     25 C          67.6713   91.6881   13.0184 C.ar    1  UNL1        0.0154
@<TRIPOS>BOND
     1    10    11    1
     2    11    12    1
     3    11    13    1
     4    11     5    1
     5     5     6   ar
     6     6     7   ar
     7     7     1    1
     8     1     2   am
     9     2     3    2
    10    14     2    1
    11    14    15    1
    12    15    16    1
    13    16    17    1
    14    17    18    1
    15    18    19    1
    16    19    20   ar
    17    20    21   ar
    18    21    22   ar
    19    22    23    1
    20    22    24   ar
    21    24    25   ar
    22     7     8   ar
    23     8     9   ar
    24     9     5   ar
    25    18    14    1
    26    25    19   ar
    27     1     4    1
@<TRIPOS>MOLECULE
*****
 25 27 0 0 0
SMALL
GASTEIGER

@<TRIPOS>ATOM
      1 N          63.0419   91.1765   12.2466 N.am    1  UNL1       -0.2654
      2 C          62.3910   90.2987   11.2192 C.2     1  UNL1        0.2453
      3 O          63.1404   89.9143    9.9779 O.2     1  UNL1       -0.2730
      4 H          62.5501   91.4288   13.0613 H       1  UNL1        0.1564
      5 C          66.4116   92.6565   11.0137 C.ar    1  UNL1        0.1549
      6 C          64.9652   92.3277   10.7904 C.ar    1  UNL1        0.0733
      7 C          64.4422   91.6699   12.0328 C.ar    1  UNL1        0.1760
      8 N          65.5654   91.5921   13.0240 N.ar    1  UNL1       -0.0621
      9 O          66.7826   92.2018   12.3942 O.2     1  UNL1       -0.3565
     10 C          68.0924   92.0426    9.8744 C.3     1  UNL1        0.0076
     11 C          67.3265   93.3229   10.0293 C.3     1  UNL1        0.0539
     12 C          66.5605   94.6033   10.1843 C.3     1  UNL1        0.0076
     13 C          68.2413   93.9893    9.0450 C.3     1  UNL1        0.0076
     14 C          60.9907   89.8052   11.4329 C.3     1  UNL1        0.1502
     15 C          59.8239   90.6323   11.8851 C.3     1  UNL1        0.0309
     16 C          58.6234   89.7363   11.9637 C.3     1  UNL1        0.0236
     17 C          59.0483   88.3556   11.5600 C.3     1  UNL1        0.0912
     18 N          60.5113   88.3982   11.2320 N.pl3   1  UNL1       -0.3015
     19 C          61.3482   87.2374   10.7820 C.ar    1  UNL1        0.0482
     20 C          61.8451   86.2379   11.7841 C.ar    1  UNL1        0.0154
     21 C          62.6819   85.0773   11.3341 C.ar    1  UNL1        0.0127
     22 C          63.0219   84.9161    9.8820 C.ar    1  UNL1        0.0578
     23 CL         63.8587   83.7554    9.4320 Cl      1  UNL1       -0.0822
     24 C          62.5250   85.9156    8.8800 C.ar    1  UNL1        0.0127
     25 C          61.6882   87.0762    9.3300 C.ar    1  UNL1        0.0154
@<TRIPOS>BOND
     1    10    11    1
     2    11    12    1
     3    11    13    1
     4    11     5    1
     5     5     6   ar
     6     6     7   ar
     7     7     1    1
     8     1     2   am
     9     2     3    2
    10    14     2    1
    11    14    15    1
    12    15    16    1
    13    16    17    1
    14    17    18    1
    15    18    19    1
    16    19    20   ar
    17    20    21   ar
    18    21    22   ar
    19    22    23    1
    20    22    24   ar
    21    24    25   ar
    22     7     8   ar
    23     8     9   ar
    24     9     5   ar
    25    18    14    1
    26    25    19   ar
    27     1     4    1
