@<TRIPOS>MOLECULE
*****
 22 24 0 0 0
SMALL
GASTEIGER

@<TRIPOS>ATOM
      1 C          63.3633   88.2552   12.7628 C.2     1  UNL1       -0.0420
      2 C          62.6928   89.3715   12.0183 C.2     1  UNL1       -0.0240
      3 C          61.9230   88.7722   10.8789 C.ar    1  UNL1       -0.0078
      4 C          61.0700   89.3882    9.8099 C.ar    1  UNL1        0.0002
      5 C          60.4116   88.5174    8.7812 C.ar    1  UNL1        0.0114
      6 C          60.6063   87.0307    8.8215 C.ar    1  UNL1        0.0574
      7 CL         59.9478   86.1599    7.7928 Cl      1  UNL1       -0.0823
      8 C          61.4593   86.4147    9.8905 C.ar    1  UNL1        0.0074
      9 C          62.1177   87.2854   10.9192 C.ar    1  UNL1       -0.0176
     10 C          63.0078   86.9659   12.0835 C.3     1  UNL1        0.0480
     11 C          64.2359   88.4023   13.9740 C.3     1  UNL1        0.0394
     12 C          64.3072   87.2972   14.9857 C.3     1  UNL1        0.0765
     13 C          63.0724   88.7010   16.7898 C.3     1  UNL1        0.0897
     14 N          63.4780   87.3682   16.2337 N.3     1  UNL1       -0.2700
     15 C          63.0545   86.1065   16.9255 C.3     1  UNL1        0.0897
     16 C          62.7773   90.8310   12.3542 C.3     1  UNL1        0.0730
     17 C          64.0514   91.5842   12.1104 C.ar    1  UNL1        0.0825
     18 C          64.4670   91.9212   10.7090 C.ar    1  UNL1        0.1139
     19 N          65.7410   92.6744   10.4651 N.ar    1  UNL1       -0.2394
     20 C          66.5995   93.0906   11.6226 C.ar    1  UNL1        0.1195
     21 C          66.1840   92.7536   13.0239 C.ar    1  UNL1        0.1191
     22 N          64.9100   92.0004   13.2679 N.ar    1  UNL1       -0.2446
@<TRIPOS>BOND
     1    13    14    1
     2    14    15    1
     3    14    12    1
     4    12    11    1
     5    11     1    1
     6     1     2    2
     7     2    16    1
     8    16    17    1
     9    17    18   ar
    10    18    19   ar
    11    19    20   ar
    12    20    21   ar
    13    21    22   ar
    14     2     3    1
    15     3     4   ar
    16     4     5   ar
    17     5     6   ar
    18     6     7    1
    19     6     8   ar
    20     8     9   ar
    21     9    10    1
    22    10     1    1
    23    22    17   ar
    24     9     3   ar
@<TRIPOS>MOLECULE
*****
 22 24 0 0 0
SMALL
GASTEIGER

@<TRIPOS>ATOM
      1 C          65.3494   91.4512   14.1218 C.2     1  UNL1       -0.0420
      2 C          65.1610   92.1375   12.8013 C.2     1  UNL1       -0.0240
      3 C          64.2227   91.3069   11.9769 C.ar    1  UNL1       -0.0078
      4 C          63.6742   91.4880   10.5926 C.ar    1  UNL1        0.0002
      5 C          62.7342   90.4694   10.0192 C.ar    1  UNL1        0.0114
      6 C          62.3426   89.2698   10.8301 C.ar    1  UNL1        0.0574
      7 CL         61.4026   88.2512   10.2566 Cl      1  UNL1       -0.0823
      8 C          62.8911   89.0887   12.2144 C.ar    1  UNL1        0.0074
      9 C          63.8311   90.1073   12.7878 C.ar    1  UNL1       -0.0176
     10 C          64.5275   90.1965   14.1134 C.3     1  UNL1        0.0480
     11 C          66.2088   91.9348   15.2521 C.3     1  UNL1        0.0394
     12 C          67.6573   91.5497   15.3108 C.3     1  UNL1        0.0765
     13 C          68.8531   93.8169   15.7355 C.3     1  UNL1        0.0897
     14 N          68.7145   92.5492   14.9455 N.3     1  UNL1       -0.2700
     15 C          69.6330   92.2812   13.7904 C.3     1  UNL1        0.0897
     16 C          65.7990   93.4278   12.3794 C.3     1  UNL1        0.0730
     17 C          66.6145   93.4852   11.1216 C.ar    1  UNL1        0.0825
     18 C          66.4217   94.6147   10.1536 C.ar    1  UNL1        0.1139
     19 N          67.2371   94.6721    8.8960 N.ar    1  UNL1       -0.2394
     20 C          68.2455   93.6000    8.6064 C.ar    1  UNL1        0.1195
     21 C          68.4383   92.4706    9.5744 C.ar    1  UNL1        0.1191
     22 N          67.6229   92.4131   10.8320 N.ar    1  UNL1       -0.2446
@<TRIPOS>BOND
     1    13    14    1
     2    14    15    1
     3    14    12    1
     4    12    11    1
     5    11     1    1
     6     1     2    2
     7     2    16    1
     8    16    17    1
     9    17    18   ar
    10    18    19   ar
    11    19    20   ar
    12    20    21   ar
    13    21    22   ar
    14     2     3    1
    15     3     4   ar
    16     4     5   ar
    17     5     6   ar
    18     6     7    1
    19     6     8   ar
    20     8     9   ar
    21     9    10    1
    22    10     1    1
    23    22    17   ar
    24     9     3   ar
@<TRIPOS>MOLECULE
*****
 22 24 0 0 0
SMALL
GASTEIGER

@<TRIPOS>ATOM
      1 C          63.9287   89.7390   13.4815 C.2     1  UNL1       -0.0420
      2 C          63.8849   88.2435   13.5887 C.2     1  UNL1       -0.0240
      3 C          63.1418   87.7149   12.3978 C.ar    1  UNL1       -0.0078
      4 C          62.7897   86.3203   11.9723 C.ar    1  UNL1        0.0002
      5 C          62.0222   86.0945   10.7035 C.ar    1  UNL1        0.0114
      6 C          61.6068   87.2633    9.8602 C.ar    1  UNL1        0.0574
      7 CL         60.8393   87.0375    8.5913 Cl      1  UNL1       -0.0823
      8 C          61.9589   88.6579   10.2856 C.ar    1  UNL1        0.0074
      9 C          62.7263   88.8837   11.5544 C.ar    1  UNL1       -0.0176
     10 C          63.2127   90.1347   12.2242 C.3     1  UNL1        0.0480
     11 C          64.5751   90.6745   14.4597 C.3     1  UNL1        0.0394
     12 C          65.9484   91.2130   14.1874 C.3     1  UNL1        0.0765
     13 C          65.6274   92.9060   12.2429 C.3     1  UNL1        0.0897
     14 N          66.1148   92.5944   13.6269 N.3     1  UNL1       -0.2700
     15 C          66.7685   93.6642   14.4504 C.3     1  UNL1        0.0897
     16 C          64.4797   87.4209   14.6931 C.3     1  UNL1        0.0730
     17 C          64.1133   85.9728   14.8306 C.ar    1  UNL1        0.0825
     18 C          65.0134   84.9145   14.2652 C.ar    1  UNL1        0.1139
     19 N          64.6471   83.4664   14.4026 N.ar    1  UNL1       -0.2394
     20 C          63.3806   83.0767   15.1055 C.ar    1  UNL1        0.1195
     21 C          62.4805   84.1350   15.6709 C.ar    1  UNL1        0.1191
     22 N          62.8468   85.5831   15.5335 N.ar    1  UNL1       -0.2446
@<TRIPOS>BOND
     1    13    14    1
     2    14    15    1
     3    14    12    1
     4    12    11    1
     5    11     1    1
     6     1     2    2
     7     2    16    1
     8    16    17    1
     9    17    18   ar
    10    18    19   ar
    11    19    20   ar
    12    20    21   ar
    13    21    22   ar
    14     2     3    1
    15     3     4   ar
    16     4     5   ar
    17     5     6   ar
    18     6     7    1
    19     6     8   ar
    20     8     9   ar
    21     9    10    1
    22    10     1    1
    23    22    17   ar
    24     9     3   ar
@<TRIPOS>MOLECULE
*****
 22 24 0 0 0
SMALL
GASTEIGER

@<TRIPOS>ATOM
      1 C          64.7203   91.7257   12.3210 C.2     1  UNL1       -0.0420
      2 C          63.7414   90.9403   13.1425 C.2     1  UNL1       -0.0240
      3 C          62.6826   90.4108   12.2212 C.ar    1  UNL1       -0.0078
      4 C          61.4650   89.5707   12.4692 C.ar    1  UNL1        0.0002
      5 C          60.5719   89.1888   11.3262 C.ar    1  UNL1        0.0114
      6 C          60.8965   89.6470    9.9352 C.ar    1  UNL1        0.0574
      7 CL         60.0033   89.2650    8.7922 Cl      1  UNL1       -0.0823
      8 C          62.1141   90.4871    9.6873 C.ar    1  UNL1        0.0074
      9 C          63.0072   90.8690   10.8303 C.ar    1  UNL1       -0.0176
     10 C          64.2665   91.6816   10.8920 C.3     1  UNL1        0.0480
     11 C          65.9389   92.4312   12.8378 C.3     1  UNL1        0.0394
     12 C          66.3557   93.7428   12.2411 C.3     1  UNL1        0.0765
     13 C          66.9315   95.0142   10.0498 C.3     1  UNL1        0.0897
     14 N          67.0171   93.7781   10.8953 N.3     1  UNL1       -0.2700
     15 C          67.7640   92.5774   10.3949 C.3     1  UNL1        0.0897
     16 C          63.8092   90.7226   14.6251 C.3     1  UNL1        0.0730
     17 C          63.7282   89.3327   15.1835 C.ar    1  UNL1        0.0825
     18 C          63.0701   89.0946   16.5102 C.ar    1  UNL1        0.1139
     19 N          62.9890   87.7049   17.0687 N.ar    1  UNL1       -0.2394
     20 C          63.5662   86.5531   16.3004 C.ar    1  UNL1        0.1195
     21 C          64.2243   86.7911   14.9736 C.ar    1  UNL1        0.1191
     22 N          64.3053   88.1809   14.4152 N.ar    1  UNL1       -0.2446
@<TRIPOS>BOND
     1    13    14    1
     2    14    15    1
     3    14    12    1
     4    12    11    1
     5    11     1    1
     6     1     2    2
     7     2    16    1
     8    16    17    1
     9    17    18   ar
    10    18    19   ar
    11    19    20   ar
    12    20    21   ar
    13    21    22   ar
    14     2     3    1
    15     3     4   ar
    16     4     5   ar
    17     5     6   ar
    18     6     7    1
    19     6     8   ar
    20     8     9   ar
    21     9    10    1
    22    10     1    1
    23    22    17   ar
    24     9     3   ar
@<TRIPOS>MOLECULE
*****
 22 24 0 0 0
SMALL
GASTEIGER

@<TRIPOS>ATOM
      1 C          62.2804   88.7674   11.0017 C.2     1  UNL1       -0.0420
      2 C          62.9610   89.2899   12.2320 C.2     1  UNL1       -0.0240
      3 C          63.4427   88.1146   13.0299 C.ar    1  UNL1       -0.0078
      4 C          64.1805   88.0203   14.3325 C.ar    1  UNL1        0.0002
      5 C          64.5353   86.6770   14.8978 C.ar    1  UNL1        0.0114
      6 C          64.1524   85.4280   14.1606 C.ar    1  UNL1        0.0574
      7 CL         64.5073   84.0847   14.7260 Cl      1  UNL1       -0.0823
      8 C          63.4146   85.5224   12.8580 C.ar    1  UNL1        0.0074
      9 C          63.0598   86.8656   12.2927 C.ar    1  UNL1       -0.0176
     10 C          62.3415   87.2691   11.0392 C.3     1  UNL1        0.0480
     11 C          61.6496   89.5974    9.9232 C.3     1  UNL1        0.0394
     12 C          60.1983   89.4167    9.5899 C.3     1  UNL1        0.0765
     13 C          59.4847   89.1864    7.1024 C.3     1  UNL1        0.0897
     14 N          59.7970   88.5573    8.4278 N.3     1  UNL1       -0.2700
     15 C          59.7081   87.0689    8.5911 C.3     1  UNL1        0.0897
     16 C          63.1303   90.7342   12.5999 C.3     1  UNL1        0.0730
     17 C          64.3964   91.4555   12.2439 C.ar    1  UNL1        0.0825
     18 C          65.4676   91.6447   13.2767 C.ar    1  UNL1        0.1139
     19 N          66.7337   92.3659   12.9208 N.ar    1  UNL1       -0.2394
     20 C          66.9287   92.8979   11.5319 C.ar    1  UNL1        0.1195
     21 C          65.8575   92.7087   10.4991 C.ar    1  UNL1        0.1191
     22 N          64.5914   91.9875   10.8550 N.ar    1  UNL1       -0.2446
@<TRIPOS>BOND
     1    13    14    1
     2    14    15    1
     3    14    12    1
     4    12    11    1
     5    11     1    1
     6     1     2    2
     7     2    16    1
     8    16    17    1
     9    17    18   ar
    10    18    19   ar
    11    19    20   ar
    12    20    21   ar
    13    21    22   ar
    14     2     3    1
    15     3     4   ar
    16     4     5   ar
    17     5     6   ar
    18     6     7    1
    19     6     8   ar
    20     8     9   ar
    21     9    10    1
    22    10     1    1
    23    22    17   ar
    24     9     3   ar
@<TRIPOS>MOLECULE
*****
 22 24 0 0 0
SMALL
GASTEIGER

@<TRIPOS>ATOM
      1 C          63.5619   90.3529   12.5469 C.2     1  UNL1       -0.0420
      2 C          63.7339   88.9342   13.0026 C.2     1  UNL1       -0.0240
      3 C          62.9532   88.0513   12.0747 C.ar    1  UNL1       -0.0078
      4 C          62.7538   86.5652   12.0340 C.ar    1  UNL1        0.0002
      5 C          61.8998   85.9522   10.9640 C.ar    1  UNL1        0.0114
      6 C          61.2452   86.8253    9.9348 C.ar    1  UNL1        0.0574
      7 CL         60.3912   86.2122    8.8648 Cl      1  UNL1       -0.0823
      8 C          61.4447   88.3113    9.9755 C.ar    1  UNL1        0.0074
      9 C          62.2987   88.9244   11.0455 C.ar    1  UNL1       -0.0176
     10 C          62.6749   90.3468   11.3373 C.3     1  UNL1        0.0480
     11 C          64.1702   91.5648   13.1882 C.3     1  UNL1        0.0394
     12 C          65.6444   91.8152   13.0710 C.3     1  UNL1        0.0765
     13 C          66.1390   94.0965   11.9304 C.3     1  UNL1        0.0897
     14 N          66.1754   93.2161   13.1444 N.3     1  UNL1       -0.2700
     15 C          66.7429   93.7367   14.4316 C.3     1  UNL1        0.0897
     16 C          64.5444   88.4783   14.1797 C.3     1  UNL1        0.0730
     17 C          63.8785   87.7600   15.3158 C.ar    1  UNL1        0.0825
     18 C          63.3091   88.5385   16.4646 C.ar    1  UNL1        0.1139
     19 N          62.6432   87.8203   17.6007 N.ar    1  UNL1       -0.2394
     20 C          62.5468   86.3234   17.5879 C.ar    1  UNL1        0.1195
     21 C          63.1161   85.5449   16.4392 C.ar    1  UNL1        0.1191
     22 N          63.7820   86.2631   15.3031 N.ar    1  UNL1       -0.2446
@<TRIPOS>BOND
     1    13    14    1
     2    14    15    1
     3    14    12    1
     4    12    11    1
     5    11     1    1
     6     1     2    2
     7     2    16    1
     8    16    17    1
     9    17    18   ar
    10    18    19   ar
    11    19    20   ar
    12    20    21   ar
    13    21    22   ar
    14     2     3    1
    15     3     4   ar
    16     4     5   ar
    17     5     6   ar
    18     6     7    1
    19     6     8   ar
    20     8     9   ar
    21     9    10    1
    22    10     1    1
    23    22    17   ar
    24     9     3   ar
@<TRIPOS>MOLECULE
*****
 22 24 0 0 0
SMALL
GASTEIGER

@<TRIPOS>ATOM
      1 C          63.2223   90.6258   11.2931 C.2     1  UNL1       -0.0420
      2 C          63.1624   89.2834   11.9597 C.2     1  UNL1       -0.0240
      3 C          62.2559   88.4040   11.1505 C.ar    1  UNL1       -0.0078
      4 C          61.8215   86.9790   11.3253 C.ar    1  UNL1        0.0002
      5 C          60.8867   86.3529   10.3334 C.ar    1  UNL1        0.0114
      6 C          60.3863   87.1517    9.1666 C.ar    1  UNL1        0.0574
      7 CL         59.4514   86.5256    8.1746 Cl      1  UNL1       -0.0823
      8 C          60.8207   88.5767    8.9917 C.ar    1  UNL1        0.0074
      9 C          61.7556   89.2028    9.9837 C.ar    1  UNL1       -0.0176
     10 C          62.3528   90.5760   10.0719 C.3     1  UNL1        0.0480
     11 C          64.0129   91.8100   11.7649 C.3     1  UNL1        0.0394
     12 C          64.8928   92.5549   10.8053 C.3     1  UNL1        0.0765
     13 C          67.4652   92.5422   10.4412 C.3     1  UNL1        0.0897
     14 N          66.2665   92.9854   11.2267 N.3     1  UNL1       -0.2700
     15 C          66.4416   93.8589   12.4334 C.3     1  UNL1        0.0897
     16 C          63.8826   88.8895   13.2152 C.3     1  UNL1        0.0730
     17 C          64.1819   89.9204   14.2631 C.ar    1  UNL1        0.0825
     18 C          63.2087   90.1598   15.3791 C.ar    1  UNL1        0.1139
     19 N          63.5079   91.1906   16.4269 N.ar    1  UNL1       -0.2394
     20 C          64.7803   91.9820   16.3587 C.ar    1  UNL1        0.1195
     21 C          65.7535   91.7426   15.2426 C.ar    1  UNL1        0.1191
     22 N          65.4543   90.7118   14.1948 N.ar    1  UNL1       -0.2446
@<TRIPOS>BOND
     1    13    14    1
     2    14    15    1
     3    14    12    1
     4    12    11    1
     5    11     1    1
     6     1     2    2
     7     2    16    1
     8    16    17    1
     9    17    18   ar
    10    18    19   ar
    11    19    20   ar
    12    20    21   ar
    13    21    22   ar
    14     2     3    1
    15     3     4   ar
    16     4     5   ar
    17     5     6   ar
    18     6     7    1
    19     6     8   ar
    20     8     9   ar
    21     9    10    1
    22    10     1    1
    23    22    17   ar
    24     9     3   ar
@<TRIPOS>MOLECULE
*****
 22 24 0 0 0
SMALL
GASTEIGER

@<TRIPOS>ATOM
      1 C          63.1949   84.3736    9.8048 C.2     1  UNL1       -0.0420
      2 C          62.4647   85.1772   10.8397 C.2     1  UNL1       -0.0240
      3 C          61.5422   86.1215   10.1275 C.ar    1  UNL1       -0.0078
      4 C          60.5771   87.1533   10.6315 C.ar    1  UNL1        0.0002
      5 C          59.7721   87.9650    9.6605 C.ar    1  UNL1        0.0114
      6 C          59.9322   87.7450    8.1853 C.ar    1  UNL1        0.0574
      7 CL         59.1272   88.5568    7.2143 Cl      1  UNL1       -0.0823
      8 C          60.8973   86.7133    7.6813 C.ar    1  UNL1        0.0074
      9 C          61.7023   85.9016    8.6523 C.ar    1  UNL1       -0.0176
     10 C          62.7237   84.8213    8.4530 C.3     1  UNL1        0.0480
     11 C          64.2169   83.3093   10.0745 C.3     1  UNL1        0.0394
     12 C          63.7791   81.9418   10.5082 C.3     1  UNL1        0.0765
     13 C          62.6835   80.5632   12.4185 C.3     1  UNL1        0.0897
     14 N          63.6411   81.6264   11.9682 N.3     1  UNL1       -0.2700
     15 C          64.4606   82.3741   12.9777 C.3     1  UNL1        0.0897
     16 C          62.6283   85.0576   12.3260 C.3     1  UNL1        0.0730
     17 C          63.2587   86.1748   13.1035 C.ar    1  UNL1        0.0825
     18 C          63.9750   85.8831   14.3887 C.ar    1  UNL1        0.1139
     19 N          64.6055   87.0002   15.1663 N.ar    1  UNL1       -0.2394
     20 C          64.5196   88.4090   14.6585 C.ar    1  UNL1        0.1195
     21 C          63.8033   88.7007   13.3733 C.ar    1  UNL1        0.1191
     22 N          63.1729   87.5836   12.5958 N.ar    1  UNL1       -0.2446
@<TRIPOS>BOND
     1    13    14    1
     2    14    15    1
     3    14    12    1
     4    12    11    1
     5    11     1    1
     6     1     2    2
     7     2    16    1
     8    16    17    1
     9    17    18   ar
    10    18    19   ar
    11    19    20   ar
    12    20    21   ar
    13    21    22   ar
    14     2     3    1
    15     3     4   ar
    16     4     5   ar
    17     5     6   ar
    18     6     7    1
    19     6     8   ar
    20     8     9   ar
    21     9    10    1
    22    10     1    1
    23    22    17   ar
    24     9     3   ar
@<TRIPOS>MOLECULE
*****
 22 24 0 0 0
SMALL
GASTEIGER

@<TRIPOS>ATOM
      1 C          63.3973   87.4965   12.9314 C.2     1  UNL1       -0.0420
      2 C          62.7509   88.7185   12.3491 C.2     1  UNL1       -0.0240
      3 C          62.0151   88.3070   11.1084 C.ar    1  UNL1       -0.0078
      4 C          61.1953   89.0859   10.1229 C.ar    1  UNL1        0.0002
      5 C          60.5672   88.3885    8.9528 C.ar    1  UNL1        0.0114
      6 C          60.7589   86.9123    8.7683 C.ar    1  UNL1        0.0574
      7 CL         60.1307   86.2149    7.5981 Cl      1  UNL1       -0.0823
      8 C          61.5786   86.1335    9.7538 C.ar    1  UNL1        0.0074
      9 C          62.2067   86.8308   10.9239 C.ar    1  UNL1       -0.0176
     10 C          63.0610   86.3299   12.0506 C.3     1  UNL1        0.0480
     11 C          64.2332   87.4495   14.1760 C.3     1  UNL1        0.0394
     12 C          64.3668   86.1666   14.9417 C.3     1  UNL1        0.0765
     13 C          62.5101   84.5223   15.7157 C.3     1  UNL1        0.0897
     14 N          63.3123   85.7712   15.9325 N.3     1  UNL1       -0.2700
     15 C          63.0599   86.6246   17.1399 C.3     1  UNL1        0.0897
     16 C          62.8269   90.1079   12.9092 C.3     1  UNL1        0.0730
     17 C          63.9085   91.0421   12.4535 C.ar    1  UNL1        0.0825
     18 C          64.9710   91.4853   13.4151 C.ar    1  UNL1        0.1139
     19 N          66.0526   92.4194   12.9596 N.ar    1  UNL1       -0.2394
     20 C          66.0717   92.9103   11.5423 C.ar    1  UNL1        0.1195
     21 C          65.0092   92.4671   10.5807 C.ar    1  UNL1        0.1191
     22 N          63.9276   91.5330   11.0363 N.ar    1  UNL1       -0.2446
@<TRIPOS>BOND
     1    13    14    1
     2    14    15    1
     3    14    12    1
     4    12    11    1
     5    11     1    1
     6     1     2    2
     7     2    16    1
     8    16    17    1
     9    17    18   ar
    10    18    19   ar
    11    19    20   ar
    12    20    21   ar
    13    21    22   ar
    14     2     3    1
    15     3     4   ar
    16     4     5   ar
    17     5     6   ar
    18     6     7    1
    19     6     8   ar
    20     8     9   ar
    21     9    10    1
    22    10     1    1
    23    22    17   ar
    24     9     3   ar
