@<TRIPOS>MOLECULE
*****
 43 46 0 0 0
SMALL
GASTEIGER

@<TRIPOS>ATOM
      1 C          61.2264   88.1772    9.9137 C.ar    1  UNL1        0.1062
      2 N          62.5224   88.6060   10.5354 N.ar    1  UNL1       -0.2365
      3 C          62.4502   90.0834   10.7850 C.ar    1  UNL1        0.1415
      4 C          61.1096   90.5675   10.3176 C.ar    1  UNL1        0.0603
      5 S          60.3533   89.3894    9.7791 S.2     1  UNL1       -0.0685
      6 C          63.5292   90.9283   11.3950 C.2     1  UNL1        0.2678
      7 O          64.2236   91.9697   10.5684 O.2     1  UNL1       -0.2681
      8 N          63.9137   90.7318   12.8315 N.am    1  UNL1       -0.2790
      9 H          63.4579   90.0483   13.3740 H       1  UNL1        0.1552
     10 C          64.9927   91.5766   13.4414 C.ar    1  UNL1        0.0536
     11 C          66.0118   92.2404   12.5635 C.ar    1  UNL1        0.0148
     12 C          67.0907   93.0853   13.1734 C.ar    1  UNL1        0.0013
     13 C          67.1506   93.2663   14.6613 C.ar    1  UNL1        0.0002
     14 C          66.1315   92.6025   15.5391 C.ar    1  UNL1        0.0044
     15 C          65.0525   91.7577   14.9292 C.ar    1  UNL1        0.0524
     16 C          64.0333   91.0938   15.8071 C.2     1  UNL1        0.1967
     17 O          63.1229   91.9258   16.6608 O.2     1  UNL1       -0.2865
     18 C          63.9246   89.5979   15.8312 C.ar    1  UNL1        0.0390
     19 C          63.1441   88.9201   16.9182 C.ar    1  UNL1        0.0032
     20 C          63.0354   87.4242   16.9423 C.ar    1  UNL1        0.0001
     21 C          63.7072   86.6061   15.8794 C.ar    1  UNL1        0.0000
     22 C          64.4877   87.2840   14.7925 C.ar    1  UNL1        0.0001
     23 C          64.5964   88.7799   14.7684 C.ar    1  UNL1        0.0032
     24 C          60.8667   86.7811    9.4993 C.3     1  UNL1        0.1183
     25 C          62.4242   84.8711   10.3216 C.2     1  UNL1        0.2463
     26 O          63.4445   85.2604    9.2934 O.2     1  UNL1       -0.2701
     27 N          61.1353   85.6315   10.4246 N.am    1  UNL1       -0.2968
     28 H          60.4656   85.3759   11.0995 H       1  UNL1        0.1501
     29 C          63.2042   82.8240   13.6308 C.ar    1  UNL1        0.1756
     30 C          62.9357   83.9736   12.7055 C.ar    1  UNL1        0.0448
     31 C          62.6927   83.7214   11.2470 C.ar    1  UNL1        0.0596
     32 C          62.7182   82.3196   10.7137 C.ar    1  UNL1        0.0448
     33 C          62.9867   81.1700   11.6391 C.ar    1  UNL1        0.1756
     34 C          63.2297   81.4222   13.0976 C.ar    1  UNL1        0.2061
     35 C          62.4048   83.7709   15.9143 C.3     1  UNL1        0.2526
     36 O          63.4473   83.0761   15.0894 O.3     1  UNL1       -0.4683
     37 O          63.0122   79.7682   11.1059 O.3     1  UNL1       -0.4683
     38 C          62.7329   79.5126    9.6544 C.3     1  UNL1        0.2526
     39 O          63.4982   80.2725   14.0230 O.3     1  UNL1       -0.4654
     40 C          62.4150   79.2774   14.3167 C.3     1  UNL1        0.2528
     41 C          60.2385   86.5347    8.1597 C.3     1  UNL1        0.0243
     42 C          60.9147   85.6346    7.1684 C.3     1  UNL1        0.0021
     43 C          58.9342   87.1884    7.8113 C.3     1  UNL1        0.0021
@<TRIPOS>BOND
     1    35    36    1
     2    36    29    1
     3    29    30   ar
     4    30    31   ar
     5    31    25    1
     6    25    26    2
     7    25    27   am
     8    27    24    1
     9    24     1    1
    10     1     2   ar
    11     2     3   ar
    12     3     6    1
    13     6     7    2
    14     6     8   am
    15     8    10    1
    16    10    11   ar
    17    11    12   ar
    18    12    13   ar
    19    13    14   ar
    20    14    15   ar
    21    15    16    1
    22    16    17    2
    23    16    18    1
    24    18    19   ar
    25    19    20   ar
    26    20    21   ar
    27    21    22   ar
    28    22    23   ar
    29     3     4   ar
    30     4     5   ar
    31    24    41    1
    32    41    42    1
    33    41    43    1
    34    31    32   ar
    35    32    33   ar
    36    33    37    1
    37    37    38    1
    38    33    34   ar
    39    34    39    1
    40    39    40    1
    41    34    29   ar
    42     5     1   ar
    43    15    10   ar
    44    23    18   ar
    45    27    28    1
    46     8     9    1
@<TRIPOS>MOLECULE
*****
 43 46 0 0 0
SMALL
GASTEIGER

@<TRIPOS>ATOM
      1 C          61.2211   88.1892    9.9278 C.ar    1  UNL1        0.1062
      2 N          62.5137   88.6150   10.5585 N.ar    1  UNL1       -0.2365
      3 C          62.4473   90.0944   10.7981 C.ar    1  UNL1        0.1415
      4 C          61.1136   90.5827   10.3153 C.ar    1  UNL1        0.0603
      5 S          60.3558   89.4052    9.7775 S.2     1  UNL1       -0.0685
      6 C          63.5252   90.9374   11.4124 C.2     1  UNL1        0.2678
      7 O          64.2200   91.9823   10.5907 O.2     1  UNL1       -0.2681
      8 N          63.9084   90.7353   12.8485 N.am    1  UNL1       -0.2790
      9 H          63.4523   90.0495   13.3879 H       1  UNL1        0.1552
     10 C          64.9863   91.5783   13.4629 C.ar    1  UNL1        0.0536
     11 C          66.0019   92.2516   12.5882 C.ar    1  UNL1        0.0148
     12 C          67.0799   93.0945   13.2026 C.ar    1  UNL1        0.0013
     13 C          67.1421   93.2642   14.6916 C.ar    1  UNL1        0.0002
     14 C          66.1265   92.5909   15.5663 C.ar    1  UNL1        0.0044
     15 C          65.0486   91.7480   14.9519 C.ar    1  UNL1        0.0524
     16 C          64.0328   91.0746   15.8266 C.2     1  UNL1        0.1967
     17 O          63.1233   91.8975   16.6901 O.2     1  UNL1       -0.2865
     18 C          63.9267   89.5784   15.8378 C.ar    1  UNL1        0.0390
     19 C          63.1617   88.8889   16.9285 C.ar    1  UNL1        0.0032
     20 C          63.0556   87.3927   16.9396 C.ar    1  UNL1        0.0001
     21 C          63.7144   86.5860   15.8601 C.ar    1  UNL1        0.0000
     22 C          64.4793   87.2755   14.7695 C.ar    1  UNL1        0.0001
     23 C          64.5855   88.7717   14.7583 C.ar    1  UNL1        0.0032
     24 C          60.8577   86.7924    9.5191 C.3     1  UNL1        0.1183
     25 C          62.4195   84.8904   10.3515 C.2     1  UNL1        0.2463
     26 O          63.4429   85.2825    9.3274 O.2     1  UNL1       -0.2701
     27 N          61.1269   85.6453   10.4473 N.am    1  UNL1       -0.2968
     28 H          60.4552   85.3879   11.1195 H       1  UNL1        0.1501
     29 C          62.9865   81.1932   11.6779 C.ar    1  UNL1        0.1756
     30 C          62.7173   82.3403   10.7497 C.ar    1  UNL1        0.0448
     31 C          62.6887   83.7432   11.2798 C.ar    1  UNL1        0.0596
     32 C          62.9292   83.9990   12.7381 C.ar    1  UNL1        0.0448
     33 C          63.1983   82.8519   13.6663 C.ar    1  UNL1        0.1756
     34 C          63.2270   81.4490   13.1362 C.ar    1  UNL1        0.2061
     35 C          62.7516   79.5323    9.6939 C.3     1  UNL1        0.2526
     36 O          63.0151   79.7903   11.1478 O.3     1  UNL1       -0.4683
     37 O          63.4389   83.1077   15.1247 O.3     1  UNL1       -0.4683
     38 C          62.3857   83.7842   15.9511 C.3     1  UNL1        0.2526
     39 O          63.4962   80.3019   14.0645 O.3     1  UNL1       -0.4654
     40 C          62.4553   79.2410   14.2673 C.3     1  UNL1        0.2528
     41 C          60.2250   86.5428    8.1821 C.3     1  UNL1        0.0243
     42 C          58.9202   87.1970    7.8360 C.3     1  UNL1        0.0021
     43 C          60.8970   85.6391    7.1914 C.3     1  UNL1        0.0021
@<TRIPOS>BOND
     1    35    36    1
     2    36    29    1
     3    29    30   ar
     4    30    31   ar
     5    31    25    1
     6    25    26    2
     7    25    27   am
     8    27    24    1
     9    24     1    1
    10     1     2   ar
    11     2     3   ar
    12     3     6    1
    13     6     7    2
    14     6     8   am
    15     8    10    1
    16    10    11   ar
    17    11    12   ar
    18    12    13   ar
    19    13    14   ar
    20    14    15   ar
    21    15    16    1
    22    16    17    2
    23    16    18    1
    24    18    19   ar
    25    19    20   ar
    26    20    21   ar
    27    21    22   ar
    28    22    23   ar
    29     3     4   ar
    30     4     5   ar
    31    24    41    1
    32    41    42    1
    33    41    43    1
    34    31    32   ar
    35    32    33   ar
    36    33    37    1
    37    37    38    1
    38    33    34   ar
    39    34    39    1
    40    39    40    1
    41    34    29   ar
    42     5     1   ar
    43    15    10   ar
    44    23    18   ar
    45    27    28    1
    46     8     9    1
@<TRIPOS>MOLECULE
*****
 43 46 0 0 0
SMALL
GASTEIGER

@<TRIPOS>ATOM
      1 C          61.7127   88.2935   10.4868 C.ar    1  UNL1        0.1062
      2 N          62.4865   88.5463   11.7467 N.ar    1  UNL1       -0.2365
      3 C          62.8495   90.0014   11.7836 C.ar    1  UNL1        0.1415
      4 C          62.2999   90.6477   10.5465 C.ar    1  UNL1        0.0603
      5 S          61.5973   89.5922    9.7451 S.2     1  UNL1       -0.0685
      6 C          63.6256   90.6893   12.8672 C.2     1  UNL1        0.2678
      7 O          63.0106   90.8858   14.2211 O.2     1  UNL1       -0.2681
      8 N          65.0169   91.1806   12.5970 N.am    1  UNL1       -0.2790
      9 H          65.4206   91.0516   11.7084 H       1  UNL1        0.1552
     10 C          65.7931   91.8685   13.6806 C.ar    1  UNL1        0.0536
     11 C          65.3372   91.7722   15.1064 C.ar    1  UNL1        0.0148
     12 C          66.1134   92.4600   16.1901 C.ar    1  UNL1        0.0013
     13 C          67.3455   93.2442   15.8479 C.ar    1  UNL1        0.0002
     14 C          67.8013   93.3405   14.4222 C.ar    1  UNL1        0.0044
     15 C          67.0251   92.6526   13.3385 C.ar    1  UNL1        0.0524
     16 C          67.4810   92.7489   11.9127 C.2     1  UNL1        0.1967
     17 O          68.4020   91.7084   11.3478 O.2     1  UNL1       -0.2865
     18 C          67.0158   93.8857   11.0517 C.ar    1  UNL1        0.0390
     19 C          67.4542   93.9701    9.6196 C.ar    1  UNL1        0.0032
     20 C          66.9890   95.1069    8.7586 C.ar    1  UNL1        0.0001
     21 C          66.0855   96.1594    9.3297 C.ar    1  UNL1        0.0000
     22 C          65.6472   96.0750   10.7618 C.ar    1  UNL1        0.0001
     23 C          66.1124   94.9382   11.6228 C.ar    1  UNL1        0.0032
     24 C          61.1525   86.9736   10.0461 C.3     1  UNL1        0.1183
     25 C          62.5018   84.8462   10.6813 C.2     1  UNL1        0.2463
     26 O          63.4920   85.1502    9.5964 O.2     1  UNL1       -0.2701
     27 N          61.3321   85.7579   10.9061 N.am    1  UNL1       -0.2968
     28 H          60.6822   85.5583   11.6182 H       1  UNL1        0.1501
     29 C          62.9622   81.0577   11.7702 C.ar    1  UNL1        0.1756
     30 C          62.7827   82.2735   10.9102 C.ar    1  UNL1        0.0448
     31 C          62.6813   83.6304   11.5414 C.ar    1  UNL1        0.0596
     32 C          62.7594   83.7716   13.0327 C.ar    1  UNL1        0.0448
     33 C          62.9389   82.5559   13.8927 C.ar    1  UNL1        0.1756
     34 C          63.0403   81.1989   13.2615 C.ar    1  UNL1        0.2061
     35 C          62.7208   79.5202    9.6900 C.3     1  UNL1        0.2526
     36 O          63.0636   79.7008   11.1390 O.3     1  UNL1       -0.4683
     37 O          63.0170   82.6970   15.3841 O.3     1  UNL1       -0.4683
     38 C          62.8399   84.0438   16.0203 C.3     1  UNL1        0.2526
     39 O          63.2198   79.9832   14.1216 O.3     1  UNL1       -0.4654
     40 C          62.1147   78.9754   14.2358 C.3     1  UNL1        0.2528
     41 C          60.4128   86.8695    8.7453 C.3     1  UNL1        0.0243
     42 C          60.9435   85.9943    7.6487 C.3     1  UNL1        0.0021
     43 C          59.1425   87.6406    8.5411 C.3     1  UNL1        0.0021
@<TRIPOS>BOND
     1    35    36    1
     2    36    29    1
     3    29    30   ar
     4    30    31   ar
     5    31    25    1
     6    25    26    2
     7    25    27   am
     8    27    24    1
     9    24     1    1
    10     1     2   ar
    11     2     3   ar
    12     3     6    1
    13     6     7    2
    14     6     8   am
    15     8    10    1
    16    10    11   ar
    17    11    12   ar
    18    12    13   ar
    19    13    14   ar
    20    14    15   ar
    21    15    16    1
    22    16    17    2
    23    16    18    1
    24    18    19   ar
    25    19    20   ar
    26    20    21   ar
    27    21    22   ar
    28    22    23   ar
    29     3     4   ar
    30     4     5   ar
    31    24    41    1
    32    41    42    1
    33    41    43    1
    34    31    32   ar
    35    32    33   ar
    36    33    37    1
    37    37    38    1
    38    33    34   ar
    39    34    39    1
    40    39    40    1
    41    34    29   ar
    42     5     1   ar
    43    15    10   ar
    44    23    18   ar
    45    27    28    1
    46     8     9    1
@<TRIPOS>MOLECULE
*****
 43 46 0 0 0
SMALL
GASTEIGER

@<TRIPOS>ATOM
      1 C          61.6693   88.2906   10.4544 C.ar    1  UNL1        0.1062
      2 N          62.4659   88.5507   11.6985 N.ar    1  UNL1       -0.2365
      3 C          62.7955   90.0135   11.7404 C.ar    1  UNL1        0.1415
      4 C          62.2026   90.6573   10.5222 C.ar    1  UNL1        0.0603
      5 S          61.5065   89.5925    9.7274 S.2     1  UNL1       -0.0685
      6 C          63.5803   90.7101   12.8123 C.2     1  UNL1        0.2678
      7 O          62.9886   90.8885   14.1790 O.2     1  UNL1       -0.2681
      8 N          64.9567   91.2284   12.5173 N.am    1  UNL1       -0.2790
      9 H          65.3450   91.1113   11.6203 H       1  UNL1        0.1552
     10 C          65.7414   91.9250   13.5892 C.ar    1  UNL1        0.0536
     11 C          65.3816   91.7256   15.0317 C.ar    1  UNL1        0.0148
     12 C          66.1664   92.4222   16.1036 C.ar    1  UNL1        0.0013
     13 C          67.3108   93.3182   15.7329 C.ar    1  UNL1        0.0002
     14 C          67.6705   93.5176   14.2905 C.ar    1  UNL1        0.0044
     15 C          66.8858   92.8210   13.2186 C.ar    1  UNL1        0.0524
     16 C          67.2455   93.0203   11.7760 C.2     1  UNL1        0.1967
     17 O          68.0068   91.9585   11.0392 O.2     1  UNL1       -0.2865
     18 C          66.8440   94.2816   11.0703 C.ar    1  UNL1        0.0390
     19 C          67.1313   94.4465    9.6073 C.ar    1  UNL1        0.0032
     20 C          66.7297   95.7078    8.9016 C.ar    1  UNL1        0.0001
     21 C          66.0408   96.8042    9.6590 C.ar    1  UNL1        0.0000
     22 C          65.7535   96.6392   11.1219 C.ar    1  UNL1        0.0001
     23 C          66.1551   95.3780   11.8276 C.ar    1  UNL1        0.0032
     24 C          61.1301   86.9617   10.0145 C.3     1  UNL1        0.1183
     25 C          62.4947   84.8510   10.6724 C.2     1  UNL1        0.2463
     26 O          63.4902   85.1582    9.5933 O.2     1  UNL1       -0.2701
     27 N          61.3146   85.7527   10.8830 N.am    1  UNL1       -0.2968
     28 H          60.6612   85.5511   11.5913 H       1  UNL1        0.1501
     29 C          62.9630   82.5873   13.8984 C.ar    1  UNL1        0.1756
     30 C          62.7785   83.7962   13.0298 C.ar    1  UNL1        0.0448
     31 C          62.6791   83.6420   11.5410 C.ar    1  UNL1        0.0596
     32 C          62.7642   82.2789   10.9209 C.ar    1  UNL1        0.0448
     33 C          62.9487   81.0700   11.7895 C.ar    1  UNL1        0.1756
     34 C          63.0481   81.2242   13.2782 C.ar    1  UNL1        0.2061
     35 C          62.8538   84.0866   16.0174 C.3     1  UNL1        0.2526
     36 O          63.0624   82.7415   15.3871 O.3     1  UNL1       -0.4683
     37 O          63.0337   79.7068   11.1693 O.3     1  UNL1       -0.4683
     38 C          62.7595   79.5304    9.7052 C.3     1  UNL1        0.2526
     39 O          63.2326   80.0152   14.1468 O.3     1  UNL1       -0.4654
     40 C          62.1353   78.9988   14.2603 C.3     1  UNL1        0.2528
     41 C          60.4064   86.8418    8.7061 C.3     1  UNL1        0.0243
     42 C          60.9303   85.9252    7.6405 C.3     1  UNL1        0.0021
     43 C          59.1590   87.6386    8.4633 C.3     1  UNL1        0.0021
@<TRIPOS>BOND
     1    35    36    1
     2    36    29    1
     3    29    30   ar
     4    30    31   ar
     5    31    25    1
     6    25    26    2
     7    25    27   am
     8    27    24    1
     9    24     1    1
    10     1     2   ar
    11     2     3   ar
    12     3     6    1
    13     6     7    2
    14     6     8   am
    15     8    10    1
    16    10    11   ar
    17    11    12   ar
    18    12    13   ar
    19    13    14   ar
    20    14    15   ar
    21    15    16    1
    22    16    17    2
    23    16    18    1
    24    18    19   ar
    25    19    20   ar
    26    20    21   ar
    27    21    22   ar
    28    22    23   ar
    29     3     4   ar
    30     4     5   ar
    31    24    41    1
    32    41    42    1
    33    41    43    1
    34    31    32   ar
    35    32    33   ar
    36    33    37    1
    37    37    38    1
    38    33    34   ar
    39    34    39    1
    40    39    40    1
    41    34    29   ar
    42     5     1   ar
    43    15    10   ar
    44    23    18   ar
    45    27    28    1
    46     8     9    1
@<TRIPOS>MOLECULE
*****
 43 46 0 0 0
SMALL
GASTEIGER

@<TRIPOS>ATOM
      1 C          61.8345   88.0653   10.0707 C.ar    1  UNL1        0.1062
      2 N          62.2693   87.0593   11.0949 N.ar    1  UNL1       -0.2365
      3 C          62.3595   85.7218   10.4217 C.ar    1  UNL1        0.1415
      4 C          61.9804   85.9013    8.9815 C.ar    1  UNL1        0.0603
      5 S          61.6559   87.3496    8.7646 S.2     1  UNL1       -0.0685
      6 C          62.7586   84.4315   11.0742 C.2     1  UNL1        0.2678
      7 O          63.5755   83.4284   10.3149 O.2     1  UNL1       -0.2681
      8 N          62.3408   84.1442   12.4859 N.am    1  UNL1       -0.2790
      9 H          61.8047   84.8026   12.9842 H       1  UNL1        0.1552
     10 C          62.7400   82.8539   13.1384 C.ar    1  UNL1        0.0536
     11 C          61.9951   81.5912   12.8211 C.ar    1  UNL1        0.0148
     12 C          62.3942   80.3009   13.4735 C.ar    1  UNL1        0.0013
     13 C          63.5383   80.2733   14.4433 C.ar    1  UNL1        0.0002
     14 C          64.2831   81.5359   14.7605 C.ar    1  UNL1        0.0044
     15 C          63.8840   82.8263   14.1080 C.ar    1  UNL1        0.0524
     16 C          64.6289   84.0891   14.4253 C.2     1  UNL1        0.1967
     17 O          66.0091   84.3032   13.8784 O.2     1  UNL1       -0.2865
     18 C          63.9936   85.1376   15.2895 C.ar    1  UNL1        0.0390
     19 C          64.3555   86.5817   15.1053 C.ar    1  UNL1        0.0032
     20 C          63.7201   87.6303   15.9695 C.ar    1  UNL1        0.0001
     21 C          62.7229   87.2348   17.0180 C.ar    1  UNL1        0.0000
     22 C          62.3610   85.7908   17.2022 C.ar    1  UNL1        0.0001
     23 C          62.9964   84.7422   16.3380 C.ar    1  UNL1        0.0032
     24 C          61.6165   89.5299   10.3106 C.3     1  UNL1        0.1183
     25 C          63.0668   90.4077   12.2794 C.2     1  UNL1        0.2463
     26 O          62.2652   89.5794   13.2392 O.2     1  UNL1       -0.2701
     27 N          62.7424   90.3830   10.8151 N.am    1  UNL1       -0.2968
     28 H          63.2685   90.9266   10.1851 H       1  UNL1        0.1501
     29 C          65.5848   92.2103   14.7614 C.ar    1  UNL1        0.1756
     30 C          64.4589   91.3573   14.2569 C.ar    1  UNL1        0.0448
     31 C          64.1928   91.2609   12.7838 C.ar    1  UNL1        0.0596
     32 C          65.0525   92.0175   11.8152 C.ar    1  UNL1        0.0448
     33 C          66.1785   92.8706   12.3197 C.ar    1  UNL1        0.1756
     34 C          66.4446   92.9670   13.7928 C.ar    1  UNL1        0.2061
     35 C          64.7068   92.3124   17.2044 C.3     1  UNL1        0.2526
     36 O          65.8509   92.3068   16.2344 O.3     1  UNL1       -0.4683
     37 O          67.0383   93.6273   11.3511 O.3     1  UNL1       -0.4683
     38 C          66.5664   94.9378   10.7946 C.3     1  UNL1        0.2526
     39 O          67.5706   93.8201   14.2972 O.3     1  UNL1       -0.4654
     40 C          68.7034   93.1950   15.0561 C.3     1  UNL1        0.2528
     41 C          60.2726   90.1414   10.0460 C.3     1  UNL1        0.0243
     42 C          59.5078   90.7845   11.1648 C.3     1  UNL1        0.0021
     43 C          59.6935   90.1097    8.6627 C.3     1  UNL1        0.0021
@<TRIPOS>BOND
     1    35    36    1
     2    36    29    1
     3    29    30   ar
     4    30    31   ar
     5    31    25    1
     6    25    26    2
     7    25    27   am
     8    27    24    1
     9    24     1    1
    10     1     2   ar
    11     2     3   ar
    12     3     6    1
    13     6     7    2
    14     6     8   am
    15     8    10    1
    16    10    11   ar
    17    11    12   ar
    18    12    13   ar
    19    13    14   ar
    20    14    15   ar
    21    15    16    1
    22    16    17    2
    23    16    18    1
    24    18    19   ar
    25    19    20   ar
    26    20    21   ar
    27    21    22   ar
    28    22    23   ar
    29     3     4   ar
    30     4     5   ar
    31    24    41    1
    32    41    42    1
    33    41    43    1
    34    31    32   ar
    35    32    33   ar
    36    33    37    1
    37    37    38    1
    38    33    34   ar
    39    34    39    1
    40    39    40    1
    41    34    29   ar
    42     5     1   ar
    43    15    10   ar
    44    23    18   ar
    45    27    28    1
    46     8     9    1
@<TRIPOS>MOLECULE
*****
 43 46 0 0 0
SMALL
GASTEIGER

@<TRIPOS>ATOM
      1 C          61.8427   88.0569   10.0740 C.ar    1  UNL1        0.1062
      2 N          62.2905   87.0527   11.0943 N.ar    1  UNL1       -0.2365
      3 C          62.3645   85.7126   10.4243 C.ar    1  UNL1        0.1415
      4 C          61.9625   85.8888    8.9899 C.ar    1  UNL1        0.0603
      5 S          61.6400   87.3376    8.7734 S.2     1  UNL1       -0.0685
      6 C          62.7695   84.4230   11.0745 C.2     1  UNL1        0.2678
      7 O          63.5971   83.4282   10.3159 O.2     1  UNL1       -0.2681
      8 N          62.3467   84.1281   12.4831 N.am    1  UNL1       -0.2790
      9 H          61.8035   84.7810   12.9809 H       1  UNL1        0.1552
     10 C          62.7516   82.8384   13.1333 C.ar    1  UNL1        0.0536
     11 C          62.0141   81.5724   12.8117 C.ar    1  UNL1        0.0148
     12 C          62.4190   80.2828   13.4619 C.ar    1  UNL1        0.0013
     13 C          63.5615   80.2591   14.4336 C.ar    1  UNL1        0.0002
     14 C          64.2990   81.5250   14.7552 C.ar    1  UNL1        0.0044
     15 C          63.8940   82.8147   14.1050 C.ar    1  UNL1        0.0524
     16 C          64.6315   84.0807   14.4265 C.2     1  UNL1        0.1967
     17 O          66.0149   84.2999   13.8895 O.2     1  UNL1       -0.2865
     18 C          63.9857   85.1275   15.2851 C.ar    1  UNL1        0.0390
     19 C          62.9816   84.7291   16.3259 C.ar    1  UNL1        0.0032
     20 C          62.3357   85.7759   17.1845 C.ar    1  UNL1        0.0001
     21 C          62.6939   87.2211   17.0022 C.ar    1  UNL1        0.0000
     22 C          63.6980   87.6195   15.9614 C.ar    1  UNL1        0.0001
     23 C          64.3438   86.5727   15.1029 C.ar    1  UNL1        0.0032
     24 C          61.6343   89.5232   10.3125 C.3     1  UNL1        0.1183
     25 C          63.0789   90.4050   12.2836 C.2     1  UNL1        0.2463
     26 O          62.2613   89.5948   13.2454 O.2     1  UNL1       -0.2701
     27 N          62.7654   90.3692   10.8172 N.am    1  UNL1       -0.2968
     28 H          63.3020   90.9010   10.1860 H       1  UNL1        0.1501
     29 C          66.2130   92.8392   12.3238 C.ar    1  UNL1        0.1756
     30 C          65.0819   91.9932   11.8192 C.ar    1  UNL1        0.0448
     31 C          64.2101   91.2511   12.7883 C.ar    1  UNL1        0.0596
     32 C          64.4694   91.3550   14.2620 C.ar    1  UNL1        0.0448
     33 C          65.6005   92.2011   14.7666 C.ar    1  UNL1        0.1756
     34 C          66.4723   92.9432   13.7975 C.ar    1  UNL1        0.2061
     35 C          66.7140   93.6363    9.9023 C.3     1  UNL1        0.2526
     36 O          67.0849   93.5813   11.3547 O.3     1  UNL1       -0.4683
     37 O          65.8599   92.3050   16.2404 O.3     1  UNL1       -0.4683
     38 C          64.7113   92.3168   17.2051 C.3     1  UNL1        0.2526
     39 O          67.6035   93.7892   14.3022 O.3     1  UNL1       -0.4654
     40 C          68.7029   93.1668   15.1109 C.3     1  UNL1        0.2528
     41 C          60.2946   90.1433   10.0462 C.3     1  UNL1        0.0243
     42 C          59.5374   90.8007   11.1619 C.3     1  UNL1        0.0021
     43 C          59.7122   90.1060    8.6645 C.3     1  UNL1        0.0021
@<TRIPOS>BOND
     1    35    36    1
     2    36    29    1
     3    29    30   ar
     4    30    31   ar
     5    31    25    1
     6    25    26    2
     7    25    27   am
     8    27    24    1
     9    24     1    1
    10     1     2   ar
    11     2     3   ar
    12     3     6    1
    13     6     7    2
    14     6     8   am
    15     8    10    1
    16    10    11   ar
    17    11    12   ar
    18    12    13   ar
    19    13    14   ar
    20    14    15   ar
    21    15    16    1
    22    16    17    2
    23    16    18    1
    24    18    19   ar
    25    19    20   ar
    26    20    21   ar
    27    21    22   ar
    28    22    23   ar
    29     3     4   ar
    30     4     5   ar
    31    24    41    1
    32    41    42    1
    33    41    43    1
    34    31    32   ar
    35    32    33   ar
    36    33    37    1
    37    37    38    1
    38    33    34   ar
    39    34    39    1
    40    39    40    1
    41    34    29   ar
    42     5     1   ar
    43    15    10   ar
    44    23    18   ar
    45    27    28    1
    46     8     9    1
@<TRIPOS>MOLECULE
*****
 43 46 0 0 0
SMALL
GASTEIGER

@<TRIPOS>ATOM
      1 C          59.7451   91.6909    4.0232 C.ar    1  UNL1        0.1062
      2 N          60.3520   90.6209    4.8816 N.ar    1  UNL1       -0.2365
      3 C          59.3498   90.2460    5.9329 C.ar    1  UNL1        0.1415
      4 C          58.1235   91.0843    5.7241 C.ar    1  UNL1        0.0603
      5 S          58.3678   91.9772    4.5439 S.2     1  UNL1       -0.0685
      6 C          59.5404   89.2141    7.0047 C.2     1  UNL1        0.2678
      7 O          58.5281   88.1216    7.1824 O.2     1  UNL1       -0.2681
      8 N          60.7434   89.2747    7.8988 N.am    1  UNL1       -0.2790
      9 H          61.4078   89.9918    7.7821 H       1  UNL1        0.1552
     10 C          60.9340   88.2428    8.9706 C.ar    1  UNL1        0.0536
     11 C          60.8953   86.7842    8.6227 C.ar    1  UNL1        0.0148
     12 C          61.0859   85.7523    9.6945 C.ar    1  UNL1        0.0013
     13 C          61.3152   86.1790   11.1142 C.ar    1  UNL1        0.0002
     14 C          61.3539   87.6375   11.4619 C.ar    1  UNL1        0.0044
     15 C          61.1632   88.6695   10.3901 C.ar    1  UNL1        0.0524
     16 C          61.2019   90.1281   10.7380 C.2     1  UNL1        0.1967
     17 O          59.9495   90.9503   10.6639 O.2     1  UNL1       -0.2865
     18 C          62.4930   90.7646   11.1598 C.ar    1  UNL1        0.0390
     19 C          63.2937   91.5619   10.1732 C.ar    1  UNL1        0.0032
     20 C          64.5848   92.1984   10.5950 C.ar    1  UNL1        0.0001
     21 C          65.0753   92.0375   12.0035 C.ar    1  UNL1        0.0000
     22 C          64.2746   91.2403   12.9900 C.ar    1  UNL1        0.0001
     23 C          62.9835   90.6038   12.5682 C.ar    1  UNL1        0.0032
     24 C          60.4004   92.3574    2.8500 C.3     1  UNL1        0.1183
     25 C          59.8130   92.3967    0.3195 C.2     1  UNL1        0.2463
     26 O          60.8991   91.3975    0.0518 O.2     1  UNL1       -0.2701
     27 N          59.5636   92.8767    1.7186 N.am    1  UNL1       -0.2968
     28 H          58.8508   93.5326    1.8943 H       1  UNL1        0.1501
     29 C          56.6459   93.4841   -1.8106 C.ar    1  UNL1        0.1756
     30 C          57.4828   92.9648   -0.6793 C.ar    1  UNL1        0.0448
     31 C          58.9761   92.9161   -0.8119 C.ar    1  UNL1        0.0596
     32 C          59.6326   93.3867   -2.0758 C.ar    1  UNL1        0.0448
     33 C          58.7957   93.9061   -3.2071 C.ar    1  UNL1        0.1756
     34 C          57.3024   93.9548   -3.0745 C.ar    1  UNL1        0.2061
     35 C          54.4419   94.8537   -1.6821 C.3     1  UNL1        0.2526
     36 O          55.1526   93.5328   -1.6780 O.3     1  UNL1       -0.4683
     37 O          59.4521   94.3768   -4.4711 O.3     1  UNL1       -0.4683
     38 C          60.7926   95.0475   -4.4152 C.3     1  UNL1        0.2526
     39 O          56.4655   94.4741   -4.2059 O.3     1  UNL1       -0.4654
     40 C          56.0037   93.5420   -5.2865 C.3     1  UNL1        0.2528
     41 C          61.8926   92.5046    2.8083 C.3     1  UNL1        0.0243
     42 C          62.5081   93.7451    2.2316 C.3     1  UNL1        0.0021
     43 C          62.7693   91.4113    3.3431 C.3     1  UNL1        0.0021
@<TRIPOS>BOND
     1    35    36    1
     2    36    29    1
     3    29    30   ar
     4    30    31   ar
     5    31    25    1
     6    25    26    2
     7    25    27   am
     8    27    24    1
     9    24     1    1
    10     1     2   ar
    11     2     3   ar
    12     3     6    1
    13     6     7    2
    14     6     8   am
    15     8    10    1
    16    10    11   ar
    17    11    12   ar
    18    12    13   ar
    19    13    14   ar
    20    14    15   ar
    21    15    16    1
    22    16    17    2
    23    16    18    1
    24    18    19   ar
    25    19    20   ar
    26    20    21   ar
    27    21    22   ar
    28    22    23   ar
    29     3     4   ar
    30     4     5   ar
    31    24    41    1
    32    41    42    1
    33    41    43    1
    34    31    32   ar
    35    32    33   ar
    36    33    37    1
    37    37    38    1
    38    33    34   ar
    39    34    39    1
    40    39    40    1
    41    34    29   ar
    42     5     1   ar
    43    15    10   ar
    44    23    18   ar
    45    27    28    1
    46     8     9    1
@<TRIPOS>MOLECULE
*****
 43 46 0 0 0
SMALL
GASTEIGER

@<TRIPOS>ATOM
      1 C          59.7006   91.7037    4.0052 C.ar    1  UNL1        0.1062
      2 N          60.3234   90.6311    4.8487 N.ar    1  UNL1       -0.2365
      3 C          59.3350   90.2421    5.9080 C.ar    1  UNL1        0.1415
      4 C          58.1014   91.0745    5.7190 C.ar    1  UNL1        0.0603
      5 S          58.3275   91.9778    4.5430 S.2     1  UNL1       -0.0685
      6 C          59.5435   89.2033    6.9698 C.2     1  UNL1        0.2678
      7 O          58.5922   88.0495    7.0872 O.2     1  UNL1       -0.2681
      8 N          60.7033   89.3183    7.9140 N.am    1  UNL1       -0.2790
      9 H          61.3277   90.0756    7.8369 H       1  UNL1        0.1552
     10 C          60.9118   88.2795    8.9758 C.ar    1  UNL1        0.0536
     11 C          60.8665   86.8231    8.6193 C.ar    1  UNL1        0.0148
     12 C          61.0750   85.7843    9.6811 C.ar    1  UNL1        0.0013
     13 C          61.3289   86.2018   11.0993 C.ar    1  UNL1        0.0002
     14 C          61.3742   87.6581   11.4556 C.ar    1  UNL1        0.0044
     15 C          61.1657   88.6969   10.3939 C.ar    1  UNL1        0.0524
     16 C          61.2111   90.1533   10.7503 C.2     1  UNL1        0.1967
     17 O          59.9589   90.9776   10.6983 O.2     1  UNL1       -0.2865
     18 C          62.5087   90.7855   11.1587 C.ar    1  UNL1        0.0390
     19 C          63.3177   91.5527   10.1552 C.ar    1  UNL1        0.0032
     20 C          64.6153   92.1848   10.5636 C.ar    1  UNL1        0.0001
     21 C          65.1038   92.0497   11.9754 C.ar    1  UNL1        0.0000
     22 C          64.2948   91.2825   12.9788 C.ar    1  UNL1        0.0001
     23 C          62.9972   90.6504   12.5704 C.ar    1  UNL1        0.0032
     24 C          60.3391   92.3831    2.8300 C.3     1  UNL1        0.1183
     25 C          59.7613   92.4085    0.2972 C.2     1  UNL1        0.2463
     26 O          60.8822   91.4477    0.0318 O.2     1  UNL1       -0.2701
     27 N          59.4898   92.8762    1.6963 N.am    1  UNL1       -0.2968
     28 H          58.7541   93.5068    1.8704 H       1  UNL1        0.1501
     29 C          58.7030   93.8109   -3.2614 C.ar    1  UNL1        0.1756
     30 C          59.5523   93.3178   -2.1276 C.ar    1  UNL1        0.0448
     31 C          58.9119   92.9016   -0.8366 C.ar    1  UNL1        0.0596
     32 C          57.4222   92.9785   -0.6794 C.ar    1  UNL1        0.0448
     33 C          56.5729   93.4717   -1.8131 C.ar    1  UNL1        0.1756
     34 C          57.2133   93.8879   -3.1041 C.ar    1  UNL1        0.2061
     35 C          59.5784   95.6807   -4.8386 C.3     1  UNL1        0.2526
     36 O          59.3434   94.2271   -4.5524 O.3     1  UNL1       -0.4683
     37 O          55.0831   93.5486   -1.6559 O.3     1  UNL1       -0.4683
     38 C          54.3964   94.8822   -1.6599 C.3     1  UNL1        0.2526
     39 O          56.3639   94.3810   -4.2379 O.3     1  UNL1       -0.4654
     40 C          55.9991   93.4546   -5.3598 C.3     1  UNL1        0.2528
     41 C          61.8269   92.5693    2.7887 C.3     1  UNL1        0.0243
     42 C          62.4099   93.8244    2.2098 C.3     1  UNL1        0.0021
     43 C          62.7318   91.5005    3.3262 C.3     1  UNL1        0.0021
@<TRIPOS>BOND
     1    35    36    1
     2    36    29    1
     3    29    30   ar
     4    30    31   ar
     5    31    25    1
     6    25    26    2
     7    25    27   am
     8    27    24    1
     9    24     1    1
    10     1     2   ar
    11     2     3   ar
    12     3     6    1
    13     6     7    2
    14     6     8   am
    15     8    10    1
    16    10    11   ar
    17    11    12   ar
    18    12    13   ar
    19    13    14   ar
    20    14    15   ar
    21    15    16    1
    22    16    17    2
    23    16    18    1
    24    18    19   ar
    25    19    20   ar
    26    20    21   ar
    27    21    22   ar
    28    22    23   ar
    29     3     4   ar
    30     4     5   ar
    31    24    41    1
    32    41    42    1
    33    41    43    1
    34    31    32   ar
    35    32    33   ar
    36    33    37    1
    37    37    38    1
    38    33    34   ar
    39    34    39    1
    40    39    40    1
    41    34    29   ar
    42     5     1   ar
    43    15    10   ar
    44    23    18   ar
    45    27    28    1
    46     8     9    1
@<TRIPOS>MOLECULE
*****
 43 46 0 0 0
SMALL
GASTEIGER

@<TRIPOS>ATOM
      1 C          63.5651   86.2975   14.4358 C.ar    1  UNL1        0.1062
      2 N          63.3169   86.4258   12.9620 N.ar    1  UNL1       -0.2365
      3 C          63.1097   85.0484   12.4053 C.ar    1  UNL1        0.1415
      4 C          63.2299   84.0689   13.5350 C.ar    1  UNL1        0.0603
      5 S          63.5114   84.8409   14.7899 S.2     1  UNL1       -0.0685
      6 C          62.8312   84.7099   10.9708 C.2     1  UNL1        0.2678
      7 O          63.0551   83.3129   10.4727 O.2     1  UNL1       -0.2681
      8 N          62.3287   85.7685   10.0343 N.am    1  UNL1       -0.2790
      9 H          62.1818   86.6855   10.3612 H       1  UNL1        0.1552
     10 C          62.0502   85.4301    8.5998 C.ar    1  UNL1        0.0536
     11 C          62.9940   84.5446    7.8413 C.ar    1  UNL1        0.0148
     12 C          62.7155   84.2061    6.4068 C.ar    1  UNL1        0.0013
     13 C          61.4933   84.7532    5.7307 C.ar    1  UNL1        0.0002
     14 C          60.5496   85.6386    6.4893 C.ar    1  UNL1        0.0044
     15 C          60.8281   85.9771    7.9238 C.ar    1  UNL1        0.0524
     16 C          59.8844   86.8626    8.6824 C.2     1  UNL1        0.1967
     17 O          58.4038   86.6473    8.5748 O.2     1  UNL1       -0.2865
     18 C          60.4213   87.9633    9.5484 C.ar    1  UNL1        0.0390
     19 C          59.7766   88.2600   10.8700 C.ar    1  UNL1        0.0032
     20 C          60.3135   89.3608   11.7361 C.ar    1  UNL1        0.0001
     21 C          61.4951   90.1648   11.2806 C.ar    1  UNL1        0.0000
     22 C          62.1398   89.8681    9.9592 C.ar    1  UNL1        0.0001
     23 C          61.6029   88.7674    9.0931 C.ar    1  UNL1        0.0032
     24 C          63.8221   87.4276   15.3882 C.3     1  UNL1        0.1183
     25 C          63.9033   89.8530   14.4606 C.2     1  UNL1        0.2463
     26 O          62.4041   89.8913   14.4292 O.2     1  UNL1       -0.2701
     27 N          64.6122   88.6212   14.9401 N.am    1  UNL1       -0.2968
     28 H          65.5962   88.5961   14.9606 H       1  UNL1        0.1501
     29 C          65.3846   92.7155   12.1449 C.ar    1  UNL1        0.1756
     30 C          64.5944   91.5219   12.5931 C.ar    1  UNL1        0.0448
     31 C          64.6935   91.0467   14.0124 C.ar    1  UNL1        0.0596
     32 C          65.5828   91.7650   14.9835 C.ar    1  UNL1        0.0448
     33 C          66.3730   92.9586   14.5353 C.ar    1  UNL1        0.1756
     34 C          66.2739   93.4338   13.1160 C.ar    1  UNL1        0.2061
     35 C          66.4984   93.1754    9.8432 C.3     1  UNL1        0.2526
     36 O          65.2856   93.1907   10.7257 O.3     1  UNL1       -0.4683
     37 O          67.2623   93.6771   15.5064 O.3     1  UNL1       -0.4683
     38 C          68.7022   93.2789   15.6408 C.3     1  UNL1        0.2526
     39 O          67.0642   94.6275   12.6679 O.3     1  UNL1       -0.4654
     40 C          66.3565   95.8414   12.1429 C.3     1  UNL1        0.2528
     41 C          63.2888   87.3639   16.7888 C.3     1  UNL1        0.0243
     42 C          63.0125   86.0346   17.4264 C.3     1  UNL1        0.0021
     43 C          63.0318   88.6296   17.5517 C.3     1  UNL1        0.0021
@<TRIPOS>BOND
     1    35    36    1
     2    36    29    1
     3    29    30   ar
     4    30    31   ar
     5    31    25    1
     6    25    26    2
     7    25    27   am
     8    27    24    1
     9    24     1    1
    10     1     2   ar
    11     2     3   ar
    12     3     6    1
    13     6     7    2
    14     6     8   am
    15     8    10    1
    16    10    11   ar
    17    11    12   ar
    18    12    13   ar
    19    13    14   ar
    20    14    15   ar
    21    15    16    1
    22    16    17    2
    23    16    18    1
    24    18    19   ar
    25    19    20   ar
    26    20    21   ar
    27    21    22   ar
    28    22    23   ar
    29     3     4   ar
    30     4     5   ar
    31    24    41    1
    32    41    42    1
    33    41    43    1
    34    31    32   ar
    35    32    33   ar
    36    33    37    1
    37    37    38    1
    38    33    34   ar
    39    34    39    1
    40    39    40    1
    41    34    29   ar
    42     5     1   ar
    43    15    10   ar
    44    23    18   ar
    45    27    28    1
    46     8     9    1
