@<TRIPOS>MOLECULE
*****
 37 40 0 0 0
SMALL
GASTEIGER

@<TRIPOS>ATOM
      1 C          63.5804   89.4430   15.5848 C.ar    1  UNL1        0.1674
      2 C          64.3120   88.5913   14.5901 C.ar    1  UNL1        0.1360
      3 N          64.3889   87.1064   14.7871 N.ar    1  UNL1       -0.2413
      4 C          63.7342   86.4730   15.9788 C.ar    1  UNL1        0.1046
      5 C          63.0026   87.3245   16.9735 C.ar    1  UNL1        0.1558
      6 C          62.9257   88.8096   16.7765 C.ar    1  UNL1        0.0772
      7 O          62.3479   86.6911   18.1652 O.3     1  UNL1       -0.4701
      8 C          62.6662   87.1837   19.5459 C.3     1  UNL1        0.2525
      9 O          63.5035   90.9280   15.3879 O.3     1  UNL1       -0.4517
     10 C          65.9780   92.9321   11.0163 C.ar    1  UNL1        0.1737
     11 C          66.8259   93.3232   12.1902 C.ar    1  UNL1        0.0592
     12 C          66.4193   92.9200   13.5767 C.ar    1  UNL1        0.0875
     13 N          67.2671   93.3111   14.7506 N.ar    1  UNL1       -0.2435
     14 C          66.8605   92.9079   16.1369 C.ar    1  UNL1        0.1020
     15 C          65.6059   92.1135   16.3493 C.ar    1  UNL1        0.0581
     16 C          64.7581   91.7224   15.1754 C.ar    1  UNL1        0.1484
     17 C          65.1647   92.1256   13.7891 C.ar    1  UNL1        0.0554
     18 C          64.3168   91.7345   12.6151 C.ar    1  UNL1        0.0446
     19 C          64.7235   92.1377   11.2288 C.ar    1  UNL1        0.1726
     20 O          63.8756   91.7466   10.0548 O.3     1  UNL1       -0.4684
     21 C          62.7381   90.7862   10.2380 C.3     1  UNL1        0.2526
     22 O          66.3847   93.3353    9.6299 O.3     1  UNL1       -0.4724
     23 C          68.7686   92.4379    9.1187 C.3     1  UNL1        0.0512
     24 C          67.8292   93.5904    9.3163 C.3     1  UNL1        0.2057
     25 C          63.8111   84.9879   16.1757 C.3     1  UNL1        0.1612
     26 C          63.3349   84.0624   15.0956 C.2     1  UNL1        0.3165
     27 O          62.2392   84.4946   14.1668 O.2     1  UNL1       -0.2465
     28 N          63.9543   82.7047   14.9443 N.am    1  UNL1       -0.1709
     29 H          64.6735   82.4211   15.5539 H       1  UNL1        0.3011
     30 C          63.4781   81.7792   13.8642 C.2     1  UNL1        0.3352
     31 N          62.6879   80.5204   14.0668 N.2     1  UNL1        0.0754
     32 N          62.4299   79.9132   12.7197 N.2     1  UNL1       -0.0428
     33 C          63.0606   80.7968   11.6844 C.2     1  UNL1        0.0944
     34 C          63.7084   81.9500   12.3918 C.3     1  UNL1        0.1480
     35 C          64.4554   83.0764   11.7412 C.3     1  UNL1        0.0190
     36 C          63.0461   80.5674   10.2022 C.3     1  UNL1        0.0459
     37 C          62.7239   79.2077    9.6569 C.3     1  UNL1        0.0065
@<TRIPOS>BOND
     1    23    24    1
     2    24    22    1
     3    22    10    1
     4    10    11   ar
     5    11    12   ar
     6    12    13   ar
     7    13    14   ar
     8    14    15   ar
     9    15    16   ar
    10    16     9    1
    11     9     1    1
    12     1     2   ar
    13     2     3   ar
    14     3     4   ar
    15     4    25    1
    16    25    26    1
    17    26    27    2
    18    26    28   am
    19    28    30    1
    20    30    31    2
    21    31    32    1
    22    32    33    2
    23    33    36    1
    24    36    37    1
    25    33    34    1
    26    34    35    1
    27     4     5   ar
    28     5     7    1
    29     7     8    1
    30     5     6   ar
    31    16    17   ar
    32    17    18   ar
    33    18    19   ar
    34    19    20    1
    35    20    21    1
    36    19    10   ar
    37    17    12   ar
    38     6     1   ar
    39    34    30    1
    40    28    29    1
@<TRIPOS>MOLECULE
*****
 37 40 0 0 0
SMALL
GASTEIGER

@<TRIPOS>ATOM
      1 C          63.9766   89.4893   15.4548 C.ar    1  UNL1        0.1674
      2 C          63.0500   89.1613   16.5879 C.ar    1  UNL1        0.1360
      3 N          62.7655   87.7297   16.9337 N.ar    1  UNL1       -0.2413
      4 C          63.4075   86.6261   16.1463 C.ar    1  UNL1        0.1046
      5 C          64.3341   86.9541   15.0133 C.ar    1  UNL1        0.1558
      6 C          64.6187   88.3857   14.6675 C.ar    1  UNL1        0.0772
      7 O          64.9761   85.8505   14.2260 O.3     1  UNL1       -0.4701
      8 C          66.2491   85.2241   14.7132 C.3     1  UNL1        0.2525
      9 O          64.2611   90.9209   15.1091 O.3     1  UNL1       -0.4517
     10 C          61.6266   90.0384   10.4690 C.ar    1  UNL1        0.1737
     11 C          62.8331   90.8557   10.1134 C.ar    1  UNL1        0.0592
     12 C          63.7934   91.2807   11.1846 C.ar    1  UNL1        0.0875
     13 N          64.9998   92.0980   10.8290 N.ar    1  UNL1       -0.2435
     14 C          65.9600   92.5230   11.9002 C.ar    1  UNL1        0.1020
     15 C          65.7138   92.1306   13.3268 C.ar    1  UNL1        0.0581
     16 C          64.5074   91.3133   13.6824 C.ar    1  UNL1        0.1484
     17 C          63.5471   90.8883   12.6113 C.ar    1  UNL1        0.0554
     18 C          62.3406   90.0710   12.9668 C.ar    1  UNL1        0.0446
     19 C          61.3804   89.6460   11.8957 C.ar    1  UNL1        0.1726
     20 O          60.1739   88.8286   12.2512 O.3     1  UNL1       -0.4684
     21 C          58.8250   89.4795   12.3341 C.3     1  UNL1        0.2526
     22 O          60.6663   89.6134    9.3979 O.3     1  UNL1       -0.4724
     23 C          61.7402   87.2484    9.3378 C.3     1  UNL1        0.0512
     24 C          60.6399   88.1859    8.9377 C.3     1  UNL1        0.2057
     25 C          63.1230   85.1945   16.4921 C.3     1  UNL1        0.1612
     26 C          62.7724   84.2169   15.4098 C.2     1  UNL1        0.3165
     27 O          61.5421   84.4280   14.5782 O.2     1  UNL1       -0.2465
     28 N          63.6522   83.0282   15.1592 N.am    1  UNL1       -0.1709
     29 H          64.4598   82.8896   15.7050 H       1  UNL1        0.3011
     30 C          63.3017   82.0505   14.0768 C.2     1  UNL1        0.3352
     31 N          62.6423   80.7176   14.2724 N.2     1  UNL1        0.0754
     32 N          62.4821   80.0775   12.9254 N.2     1  UNL1       -0.0428
     33 C          63.0426   81.0149   11.8971 C.2     1  UNL1        0.0944
     34 C          63.5491   82.2343   12.6088 C.3     1  UNL1        0.1480
     35 C          64.1905   83.4280   11.9654 C.3     1  UNL1        0.0190
     36 C          63.0885   80.7750   10.4172 C.3     1  UNL1        0.0459
     37 C          62.7948   79.4099    9.8692 C.3     1  UNL1        0.0065
@<TRIPOS>BOND
     1    23    24    1
     2    24    22    1
     3    22    10    1
     4    10    11   ar
     5    11    12   ar
     6    12    13   ar
     7    13    14   ar
     8    14    15   ar
     9    15    16   ar
    10    16     9    1
    11     9     1    1
    12     1     2   ar
    13     2     3   ar
    14     3     4   ar
    15     4    25    1
    16    25    26    1
    17    26    27    2
    18    26    28   am
    19    28    30    1
    20    30    31    2
    21    31    32    1
    22    32    33    2
    23    33    36    1
    24    36    37    1
    25    33    34    1
    26    34    35    1
    27     4     5   ar
    28     5     7    1
    29     7     8    1
    30     5     6   ar
    31    16    17   ar
    32    17    18   ar
    33    18    19   ar
    34    19    20    1
    35    20    21    1
    36    19    10   ar
    37    17    12   ar
    38     6     1   ar
    39    34    30    1
    40    28    29    1
@<TRIPOS>MOLECULE
*****
 37 40 0 0 0
SMALL
GASTEIGER

@<TRIPOS>ATOM
      1 C          62.2889   88.5386   11.6056 C.ar    1  UNL1        0.1674
      2 C          62.4804   89.8616   10.9250 C.ar    1  UNL1        0.1360
      3 N          63.2865   90.9374   11.5902 N.ar    1  UNL1       -0.2413
      4 C          63.9013   90.6904   12.9360 C.ar    1  UNL1        0.1046
      5 C          63.7098   89.3675   13.6166 C.ar    1  UNL1        0.1558
      6 C          62.9036   88.2916   12.9514 C.ar    1  UNL1        0.0772
      7 O          64.3246   89.1205   14.9623 O.3     1  UNL1       -0.4701
      8 C          63.4890   89.2416   16.2022 C.3     1  UNL1        0.2525
      9 O          61.4827   87.4627   10.9405 O.3     1  UNL1       -0.4517
     10 C          63.4513   82.7142   12.6217 C.ar    1  UNL1        0.1737
     11 C          63.7181   82.7765   11.1470 C.ar    1  UNL1        0.0592
     12 C          63.2927   83.9792   10.3579 C.ar    1  UNL1        0.0875
     13 N          63.5596   84.0415    8.8832 N.ar    1  UNL1       -0.2435
     14 C          63.1341   85.2442    8.0942 C.ar    1  UNL1        0.1020
     15 C          62.4419   86.3846    8.7800 C.ar    1  UNL1        0.0581
     16 C          62.1750   86.3223   10.2547 C.ar    1  UNL1        0.1484
     17 C          62.6004   85.1196   11.0437 C.ar    1  UNL1        0.0554
     18 C          62.3336   85.0572   12.5185 C.ar    1  UNL1        0.0446
     19 C          62.7590   83.8546   13.3074 C.ar    1  UNL1        0.1726
     20 O          62.4921   83.7922   14.7822 O.3     1  UNL1       -0.4684
     21 C          62.5924   85.0353   15.6157 C.3     1  UNL1        0.2526
     22 O          63.8767   81.5114   13.4107 O.3     1  UNL1       -0.4724
     23 C          61.4574   80.6633   13.8321 C.3     1  UNL1        0.0512
     24 C          62.9164   80.3801   13.6298 C.3     1  UNL1        0.2057
     25 C          64.7075   91.7664   13.6012 C.3     1  UNL1        0.1612
     26 C          65.6272   92.6266   12.7863 C.2     1  UNL1        0.3165
     27 O          66.3626   93.7620   13.4344 O.2     1  UNL1       -0.2465
     28 N          65.8115   92.3514   11.3234 N.am    1  UNL1       -0.1709
     29 H          65.3288   91.6062   10.8980 H       1  UNL1        0.3011
     30 C          66.7313   93.2116   10.5084 C.2     1  UNL1        0.3352
     31 N          68.0796   92.8126    9.9861 N.2     1  UNL1        0.0754
     32 N          68.6458   93.9763    9.2276 N.2     1  UNL1       -0.0428
     33 C          67.6474   95.0945    9.2811 C.2     1  UNL1        0.0944
     34 C          66.4642   94.6219   10.0727 C.3     1  UNL1        0.1480
     35 C          65.2304   95.4195   10.3754 C.3     1  UNL1        0.0190
     36 C          67.8046   96.4477    8.6532 C.3     1  UNL1        0.0459
     37 C          66.9156   96.8545    7.5157 C.3     1  UNL1        0.0065
@<TRIPOS>BOND
     1    23    24    1
     2    24    22    1
     3    22    10    1
     4    10    11   ar
     5    11    12   ar
     6    12    13   ar
     7    13    14   ar
     8    14    15   ar
     9    15    16   ar
    10    16     9    1
    11     9     1    1
    12     1     2   ar
    13     2     3   ar
    14     3     4   ar
    15     4    25    1
    16    25    26    1
    17    26    27    2
    18    26    28   am
    19    28    30    1
    20    30    31    2
    21    31    32    1
    22    32    33    2
    23    33    36    1
    24    36    37    1
    25    33    34    1
    26    34    35    1
    27     4     5   ar
    28     5     7    1
    29     7     8    1
    30     5     6   ar
    31    16    17   ar
    32    17    18   ar
    33    18    19   ar
    34    19    20    1
    35    20    21    1
    36    19    10   ar
    37    17    12   ar
    38     6     1   ar
    39    34    30    1
    40    28    29    1
@<TRIPOS>MOLECULE
*****
 37 40 0 0 0
SMALL
GASTEIGER

@<TRIPOS>ATOM
      1 C          63.4922   88.9301   15.3389 C.ar    1  UNL1        0.1674
      2 C          62.7036   88.5879   16.5683 C.ar    1  UNL1        0.1360
      3 N          62.6163   87.1637   17.0310 N.ar    1  UNL1       -0.2413
      4 C          63.3174   86.0817   16.2644 C.ar    1  UNL1        0.1046
      5 C          64.1059   86.4239   15.0351 C.ar    1  UNL1        0.1558
      6 C          64.1933   87.8481   14.5723 C.ar    1  UNL1        0.0772
      7 O          64.8070   85.3418   14.2685 O.3     1  UNL1       -0.4701
      8 C          66.2608   85.0681   14.5170 C.3     1  UNL1        0.2525
      9 O          63.5796   90.3542   14.8763 O.3     1  UNL1       -0.4517
     10 C          66.5239   93.2164   11.3566 C.ar    1  UNL1        0.1737
     11 C          65.3457   92.6967   10.5875 C.ar    1  UNL1        0.0592
     12 C          64.3150   91.8512   11.2751 C.ar    1  UNL1        0.0875
     13 N          63.1367   91.3315   10.5060 N.ar    1  UNL1       -0.2435
     14 C          62.1061   90.4860   11.1937 C.ar    1  UNL1        0.1020
     15 C          62.2537   90.1602   12.6504 C.ar    1  UNL1        0.0581
     16 C          63.4319   90.6800   13.4195 C.ar    1  UNL1        0.1484
     17 C          64.4626   91.5254   12.7319 C.ar    1  UNL1        0.0554
     18 C          65.6409   92.0452   13.5010 C.ar    1  UNL1        0.0446
     19 C          66.6716   92.8907   12.8133 C.ar    1  UNL1        0.1726
     20 O          67.8499   93.4105   13.5824 O.3     1  UNL1       -0.4684
     21 C          67.9329   93.1939   15.0644 C.3     1  UNL1        0.2526
     22 O          67.5547   94.0620   10.6689 O.3     1  UNL1       -0.4724
     23 C          68.7049   92.4762    8.9624 C.3     1  UNL1        0.0512
     24 C          67.9656   93.7467    9.2612 C.3     1  UNL1        0.2057
     25 C          63.2299   84.6575   16.7271 C.3     1  UNL1        0.1612
     26 C          63.3520   83.5381   15.7362 C.2     1  UNL1        0.3165
     27 O          64.5565   82.6444   15.7588 O.2     1  UNL1       -0.2465
     28 N          62.2696   83.3125   14.7226 N.am    1  UNL1       -0.1709
     29 H          61.4790   83.8991   14.7077 H       1  UNL1        0.3011
     30 C          62.3916   82.1930   13.7316 C.2     1  UNL1        0.3352
     31 N          62.1273   80.7418   14.0037 N.2     1  UNL1        0.0754
     32 N          62.3717   79.9802   12.7348 N.2     1  UNL1       -0.0428
     33 C          62.7870   80.9608   11.6783 C.2     1  UNL1        0.0944
     34 C          62.7993   82.3283   12.2944 C.3     1  UNL1        0.1480
     35 C          63.1565   83.6069   11.5959 C.3     1  UNL1        0.0190
     36 C          63.1298   80.6315   10.2556 C.3     1  UNL1        0.0459
     37 C          62.7852   79.2841    9.6937 C.3     1  UNL1        0.0065
@<TRIPOS>BOND
     1    23    24    1
     2    24    22    1
     3    22    10    1
     4    10    11   ar
     5    11    12   ar
     6    12    13   ar
     7    13    14   ar
     8    14    15   ar
     9    15    16   ar
    10    16     9    1
    11     9     1    1
    12     1     2   ar
    13     2     3   ar
    14     3     4   ar
    15     4    25    1
    16    25    26    1
    17    26    27    2
    18    26    28   am
    19    28    30    1
    20    30    31    2
    21    31    32    1
    22    32    33    2
    23    33    36    1
    24    36    37    1
    25    33    34    1
    26    34    35    1
    27     4     5   ar
    28     5     7    1
    29     7     8    1
    30     5     6   ar
    31    16    17   ar
    32    17    18   ar
    33    18    19   ar
    34    19    20    1
    35    20    21    1
    36    19    10   ar
    37    17    12   ar
    38     6     1   ar
    39    34    30    1
    40    28    29    1
@<TRIPOS>MOLECULE
*****
 37 40 0 0 0
SMALL
GASTEIGER

@<TRIPOS>ATOM
      1 C          62.1792   88.6808   11.0772 C.ar    1  UNL1        0.1674
      2 C          62.4091   89.3573    9.7582 C.ar    1  UNL1        0.1360
      3 N          63.0819   90.6970    9.7096 N.ar    1  UNL1       -0.2413
      4 C          63.5249   91.3603   10.9799 C.ar    1  UNL1        0.1046
      5 C          63.2951   90.6839   12.2989 C.ar    1  UNL1        0.1558
      6 C          62.6222   89.3442   12.3475 C.ar    1  UNL1        0.0772
      7 O          63.7381   91.3473   13.5692 O.3     1  UNL1       -0.4701
      8 C          63.6874   90.5944   14.8656 C.3     1  UNL1        0.2525
      9 O          61.5064   87.3411   11.1258 O.3     1  UNL1       -0.4517
     10 C          63.4320   82.7114   13.1526 C.ar    1  UNL1        0.1737
     11 C          63.6857   82.6562   11.6752 C.ar    1  UNL1        0.0592
     12 C          63.2677   83.7998   10.7991 C.ar    1  UNL1        0.0875
     13 N          63.5213   83.7445    9.3218 N.ar    1  UNL1       -0.2435
     14 C          63.1034   84.8881    8.4458 C.ar    1  UNL1        0.1020
     15 C          62.4317   86.0870    9.0471 C.ar    1  UNL1        0.0581
     16 C          62.1780   86.1422   10.5245 C.ar    1  UNL1        0.1484
     17 C          62.5960   84.9987   11.4005 C.ar    1  UNL1        0.0554
     18 C          62.3424   85.0539   12.8779 C.ar    1  UNL1        0.0446
     19 C          62.7603   83.9103   13.7539 C.ar    1  UNL1        0.1726
     20 O          62.5067   83.9655   15.2313 O.3     1  UNL1       -0.4684
     21 C          63.0454   85.1064   16.0426 C.3     1  UNL1        0.2526
     22 O          63.8500   81.5678   14.0287 O.3     1  UNL1       -0.4724
     23 C          61.5328   80.4180   13.7870 C.3     1  UNL1        0.0512
     24 C          62.9937   80.3395   14.1180 C.3     1  UNL1        0.2057
     25 C          64.1978   92.7001   10.9313 C.3     1  UNL1        0.1612
     26 C          65.4563   92.9361   11.7125 C.2     1  UNL1        0.3165
     27 O          65.9816   94.3305   11.8851 O.2     1  UNL1       -0.2465
     28 N          66.1896   91.7777   12.3211 N.am    1  UNL1       -0.1709
     29 H          65.8449   90.8626   12.2077 H       1  UNL1        0.3011
     30 C          67.4482   92.0137   13.1023 C.2     1  UNL1        0.3352
     31 N          68.8427   91.7104   12.6403 N.2     1  UNL1        0.0754
     32 N          69.7896   92.1037   13.7351 N.2     1  UNL1       -0.0428
     33 C          68.9803   92.6500   14.8739 C.2     1  UNL1        0.0944
     34 C          67.5333   92.5944   14.4827 C.3     1  UNL1        0.1480
     35 C          66.3746   93.0410   15.3243 C.3     1  UNL1        0.0190
     36 C          69.5228   93.1620   16.1752 C.3     1  UNL1        0.0459
     37 C          69.4222   94.6213   16.5075 C.3     1  UNL1        0.0065
@<TRIPOS>BOND
     1    23    24    1
     2    24    22    1
     3    22    10    1
     4    10    11   ar
     5    11    12   ar
     6    12    13   ar
     7    13    14   ar
     8    14    15   ar
     9    15    16   ar
    10    16     9    1
    11     9     1    1
    12     1     2   ar
    13     2     3   ar
    14     3     4   ar
    15     4    25    1
    16    25    26    1
    17    26    27    2
    18    26    28   am
    19    28    30    1
    20    30    31    2
    21    31    32    1
    22    32    33    2
    23    33    36    1
    24    36    37    1
    25    33    34    1
    26    34    35    1
    27     4     5   ar
    28     5     7    1
    29     7     8    1
    30     5     6   ar
    31    16    17   ar
    32    17    18   ar
    33    18    19   ar
    34    19    20    1
    35    20    21    1
    36    19    10   ar
    37    17    12   ar
    38     6     1   ar
    39    34    30    1
    40    28    29    1
@<TRIPOS>MOLECULE
*****
 37 40 0 0 0
SMALL
GASTEIGER

@<TRIPOS>ATOM
      1 C          63.8781   89.7337   14.9047 C.ar    1  UNL1        0.1674
      2 C          63.7679   89.4694   13.4323 C.ar    1  UNL1        0.1360
      3 N          63.6368   88.0618   12.9307 N.ar    1  UNL1       -0.2413
      4 C          63.6160   86.9185   13.9015 C.ar    1  UNL1        0.1046
      5 C          63.7262   87.1828   15.3739 C.ar    1  UNL1        0.1558
      6 C          63.8573   88.5904   15.8755 C.ar    1  UNL1        0.0772
      7 O          63.7054   86.0395   16.3447 O.3     1  UNL1       -0.4701
      8 C          62.7218   86.0351   17.4772 C.3     1  UNL1        0.2525
      9 O          64.0092   91.1412   15.4063 O.3     1  UNL1       -0.4517
     10 C          66.2107   93.1949   10.9135 C.ar    1  UNL1        0.1737
     11 C          67.1400   93.5554   12.0344 C.ar    1  UNL1        0.0592
     12 C          66.8219   93.1321   13.4379 C.ar    1  UNL1        0.0875
     13 N          67.7512   93.4926   14.5588 N.ar    1  UNL1       -0.2435
     14 C          67.4331   93.0693   15.9622 C.ar    1  UNL1        0.1020
     15 C          66.1858   92.2855   16.2447 C.ar    1  UNL1        0.0581
     16 C          65.2565   91.9250   15.1238 C.ar    1  UNL1        0.1484
     17 C          65.5746   92.3483   13.7204 C.ar    1  UNL1        0.0554
     18 C          64.6453   91.9878   12.5994 C.ar    1  UNL1        0.0446
     19 C          64.9634   92.4111   11.1960 C.ar    1  UNL1        0.1726
     20 O          64.0341   92.0506   10.0750 O.3     1  UNL1       -0.4684
     21 C          63.0432   90.9382   10.2506 C.3     1  UNL1        0.2526
     22 O          66.5288   93.6182    9.5100 O.3     1  UNL1       -0.4724
     23 C          68.7009   92.3140    8.9352 C.3     1  UNL1        0.0512
     24 C          67.9489   93.6085    9.0273 C.3     1  UNL1        0.2057
     25 C          63.4849   85.5109   13.3999 C.3     1  UNL1        0.1612
     26 C          62.7784   85.2390   12.1049 C.2     1  UNL1        0.3165
     27 O          62.3473   83.8432   11.7646 O.2     1  UNL1       -0.2465
     28 N          62.5031   86.3628   11.1504 N.am    1  UNL1       -0.1709
     29 H          62.7861   87.2789   11.3738 H       1  UNL1        0.3011
     30 C          61.7965   86.0908    9.8554 C.2     1  UNL1        0.3352
     31 N          60.4688   86.6521    9.4407 N.2     1  UNL1        0.0754
     32 N          60.1454   86.1180    8.0768 N.2     1  UNL1       -0.0428
     33 C          61.2733   85.2266    7.6486 C.2     1  UNL1        0.0944
     34 C          62.2938   85.2098    8.7479 C.3     1  UNL1        0.1480
     35 C          63.5848   84.4461    8.7409 C.3     1  UNL1        0.0190
     36 C          61.3647   84.4827    6.3493 C.3     1  UNL1        0.0459
     37 C          62.5675   84.6545    5.4697 C.3     1  UNL1        0.0065
@<TRIPOS>BOND
     1    23    24    1
     2    24    22    1
     3    22    10    1
     4    10    11   ar
     5    11    12   ar
     6    12    13   ar
     7    13    14   ar
     8    14    15   ar
     9    15    16   ar
    10    16     9    1
    11     9     1    1
    12     1     2   ar
    13     2     3   ar
    14     3     4   ar
    15     4    25    1
    16    25    26    1
    17    26    27    2
    18    26    28   am
    19    28    30    1
    20    30    31    2
    21    31    32    1
    22    32    33    2
    23    33    36    1
    24    36    37    1
    25    33    34    1
    26    34    35    1
    27     4     5   ar
    28     5     7    1
    29     7     8    1
    30     5     6   ar
    31    16    17   ar
    32    17    18   ar
    33    18    19   ar
    34    19    20    1
    35    20    21    1
    36    19    10   ar
    37    17    12   ar
    38     6     1   ar
    39    34    30    1
    40    28    29    1
@<TRIPOS>MOLECULE
*****
 37 40 0 0 0
SMALL
GASTEIGER

@<TRIPOS>ATOM
      1 C          63.8540   89.8433   14.5958 C.ar    1  UNL1        0.1674
      2 C          63.0051   89.8970   13.3602 C.ar    1  UNL1        0.1360
      3 N          62.7347   88.6442   12.5810 N.ar    1  UNL1       -0.2413
      4 C          63.3132   87.3376   13.0373 C.ar    1  UNL1        0.1046
      5 C          64.1621   87.2838   14.2727 C.ar    1  UNL1        0.1558
      6 C          64.4325   88.5367   15.0520 C.ar    1  UNL1        0.0772
      7 O          64.7405   85.9773   14.7290 O.3     1  UNL1       -0.4701
      8 C          63.9480   85.0815   15.6344 C.3     1  UNL1        0.2525
      9 O          64.1244   91.0962   15.3750 O.3     1  UNL1       -0.4517
     10 C          66.2767   93.3731   10.9667 C.ar    1  UNL1        0.1737
     11 C          67.2249   93.6663   12.0914 C.ar    1  UNL1        0.0592
     12 C          66.9238   93.1704   13.4747 C.ar    1  UNL1        0.0875
     13 N          67.8720   93.4636   14.5994 N.ar    1  UNL1       -0.2435
     14 C          67.5709   92.9676   15.9827 C.ar    1  UNL1        0.1020
     15 C          66.3218   92.1785   16.2412 C.ar    1  UNL1        0.0581
     16 C          65.3736   91.8853   15.1165 C.ar    1  UNL1        0.1484
     17 C          65.6747   92.3812   13.7332 C.ar    1  UNL1        0.0554
     18 C          64.7265   92.0880   12.6084 C.ar    1  UNL1        0.0446
     19 C          65.0276   92.5840   11.2252 C.ar    1  UNL1        0.1726
     20 O          64.0794   92.2908   10.1004 O.3     1  UNL1       -0.4684
     21 C          63.0990   91.1619   10.2209 C.3     1  UNL1        0.2526
     22 O          66.5778   93.8690    9.5834 O.3     1  UNL1       -0.4724
     23 C          68.5697   92.2453    9.2018 C.3     1  UNL1        0.0512
     24 C          67.9028   93.5649    8.9494 C.3     1  UNL1        0.2057
     25 C          63.0427   86.0847   12.2580 C.3     1  UNL1        0.1612
     26 C          62.3220   86.1593   10.9446 C.2     1  UNL1        0.3165
     27 O          62.7543   85.2895    9.8015 O.2     1  UNL1       -0.2465
     28 N          61.1691   87.1035   10.7743 N.am    1  UNL1       -0.1709
     29 H          60.8854   87.6743   11.5246 H       1  UNL1        0.3011
     30 C          60.4483   87.1781    9.4609 C.2     1  UNL1        0.3352
     31 N          60.1316   86.0198    8.5620 N.2     1  UNL1        0.0754
     32 N          59.4053   86.5500    7.3614 N.2     1  UNL1       -0.0428
     33 C          59.2731   88.0359    7.5183 C.2     1  UNL1        0.0944
     34 C          59.9178   88.4241    8.8159 C.3     1  UNL1        0.1480
     35 C          60.0148   89.8143    9.3710 C.3     1  UNL1        0.0190
     36 C          58.6124   88.9697    6.5480 C.3     1  UNL1        0.0459
     37 C          59.4176   90.0359    5.8663 C.3     1  UNL1        0.0065
@<TRIPOS>BOND
     1    23    24    1
     2    24    22    1
     3    22    10    1
     4    10    11   ar
     5    11    12   ar
     6    12    13   ar
     7    13    14   ar
     8    14    15   ar
     9    15    16   ar
    10    16     9    1
    11     9     1    1
    12     1     2   ar
    13     2     3   ar
    14     3     4   ar
    15     4    25    1
    16    25    26    1
    17    26    27    2
    18    26    28   am
    19    28    30    1
    20    30    31    2
    21    31    32    1
    22    32    33    2
    23    33    36    1
    24    36    37    1
    25    33    34    1
    26    34    35    1
    27     4     5   ar
    28     5     7    1
    29     7     8    1
    30     5     6   ar
    31    16    17   ar
    32    17    18   ar
    33    18    19   ar
    34    19    20    1
    35    20    21    1
    36    19    10   ar
    37    17    12   ar
    38     6     1   ar
    39    34    30    1
    40    28    29    1
@<TRIPOS>MOLECULE
*****
 37 40 0 0 0
SMALL
GASTEIGER

@<TRIPOS>ATOM
      1 C          63.3142   85.1590   14.4758 C.ar    1  UNL1        0.1674
      2 C          64.0675   86.3096   13.8768 C.ar    1  UNL1        0.1360
      3 N          64.1031   87.6321   14.5836 N.ar    1  UNL1       -0.2413
      4 C          63.3854   87.8041   15.8895 C.ar    1  UNL1        0.1046
      5 C          62.6321   86.6536   16.4885 C.ar    1  UNL1        0.1558
      6 C          62.5965   85.3310   15.7817 C.ar    1  UNL1        0.0772
      7 O          61.9144   86.8257   17.7944 O.3     1  UNL1       -0.4701
      8 C          62.6895   86.8522   19.0784 C.3     1  UNL1        0.2525
      9 O          63.2787   83.8365   13.7690 O.3     1  UNL1       -0.4517
     10 C          61.5396   86.8286    9.6130 C.ar    1  UNL1        0.1737
     11 C          62.3931   85.7476    9.0189 C.ar    1  UNL1        0.0592
     12 C          63.0413   84.7292    9.9094 C.ar    1  UNL1        0.0875
     13 N          63.8947   83.6482    9.3154 N.ar    1  UNL1       -0.2435
     14 C          64.5428   82.6299   10.2059 C.ar    1  UNL1        0.1020
     15 C          64.3375   82.6927   11.6904 C.ar    1  UNL1        0.0581
     16 C          63.4840   83.7737   12.2845 C.ar    1  UNL1        0.1484
     17 C          62.8359   84.7920   11.3940 C.ar    1  UNL1        0.0554
     18 C          61.9824   85.8731   11.9880 C.ar    1  UNL1        0.0446
     19 C          61.3343   86.8914   11.0975 C.ar    1  UNL1        0.1726
     20 O          60.4808   87.9725   11.6916 O.3     1  UNL1       -0.4684
     21 C          60.9326   89.4016   11.6335 C.3     1  UNL1        0.2526
     22 O          60.8915   87.8469    8.7224 O.3     1  UNL1       -0.4724
     23 C          58.9805   86.4935    7.5972 C.3     1  UNL1        0.0512
     24 C          59.4456   87.7051    8.3493 C.3     1  UNL1        0.2057
     25 C          63.4210   89.1267   16.5963 C.3     1  UNL1        0.1612
     26 C          63.9635   90.3371   15.8958 C.2     1  UNL1        0.3165
     27 O          63.4725   91.7038   16.2712 O.2     1  UNL1       -0.2465
     28 N          64.9968   90.1807   14.8199 N.am    1  UNL1       -0.1709
     29 H          65.3190   89.2836   14.5735 H       1  UNL1        0.3011
     30 C          65.5394   91.3910   14.1194 C.2     1  UNL1        0.3352
     31 N          66.6213   92.2951   14.6313 N.2     1  UNL1        0.0754
     32 N          66.8458   93.3726   13.6122 N.2     1  UNL1       -0.0428
     33 C          65.9026   93.1345   12.4704 C.2     1  UNL1        0.0944
     34 C          65.0952   91.9099   12.7839 C.3     1  UNL1        0.1480
     35 C          64.0304   91.3094   11.9145 C.3     1  UNL1        0.0190
     36 C          65.7870   93.9738   11.2326 C.3     1  UNL1        0.0459
     37 C          66.2094   95.4128   11.2600 C.3     1  UNL1        0.0065
@<TRIPOS>BOND
     1    23    24    1
     2    24    22    1
     3    22    10    1
     4    10    11   ar
     5    11    12   ar
     6    12    13   ar
     7    13    14   ar
     8    14    15   ar
     9    15    16   ar
    10    16     9    1
    11     9     1    1
    12     1     2   ar
    13     2     3   ar
    14     3     4   ar
    15     4    25    1
    16    25    26    1
    17    26    27    2
    18    26    28   am
    19    28    30    1
    20    30    31    2
    21    31    32    1
    22    32    33    2
    23    33    36    1
    24    36    37    1
    25    33    34    1
    26    34    35    1
    27     4     5   ar
    28     5     7    1
    29     7     8    1
    30     5     6   ar
    31    16    17   ar
    32    17    18   ar
    33    18    19   ar
    34    19    20    1
    35    20    21    1
    36    19    10   ar
    37    17    12   ar
    38     6     1   ar
    39    34    30    1
    40    28    29    1
@<TRIPOS>MOLECULE
*****
 37 40 0 0 0
SMALL
GASTEIGER

@<TRIPOS>ATOM
      1 C          59.2264   90.1841    5.9349 C.ar    1  UNL1        0.1674
      2 C          58.0851   91.0129    5.4243 C.ar    1  UNL1        0.1360
      3 N          58.3361   92.0948    4.4162 N.ar    1  UNL1       -0.2413
      4 C          59.7283   92.3481    3.9186 C.ar    1  UNL1        0.1046
      5 C          60.8696   91.5194    4.4292 C.ar    1  UNL1        0.1558
      6 C          60.6186   90.4373    5.4374 C.ar    1  UNL1        0.0772
      7 O          62.2618   91.7726    3.9317 O.3     1  UNL1       -0.4701
      8 C          63.0457   90.6614    3.2984 C.3     1  UNL1        0.2525
      9 O          58.9754   89.1022    6.9431 O.3     1  UNL1       -0.4517
     10 C          62.4085   85.3349    8.7518 C.ar    1  UNL1        0.1737
     11 C          62.4316   86.4400    9.7658 C.ar    1  UNL1        0.0592
     12 C          61.5791   87.6581    9.5671 C.ar    1  UNL1        0.0875
     13 N          61.6022   88.7632   10.5811 N.ar    1  UNL1       -0.2435
     14 C          60.7498   89.9813   10.3824 C.ar    1  UNL1        0.1020
     15 C          59.8742   90.0943    9.1697 C.ar    1  UNL1        0.0581
     16 C          59.8510   88.9892    8.1557 C.ar    1  UNL1        0.1484
     17 C          60.7035   87.7711    8.3544 C.ar    1  UNL1        0.0554
     18 C          60.6804   86.6659    7.3404 C.ar    1  UNL1        0.0446
     19 C          61.5329   85.4478    7.5392 C.ar    1  UNL1        0.1726
     20 O          61.5098   84.3426    6.5252 O.3     1  UNL1       -0.4684
     21 C          62.4139   84.4026    5.3298 C.3     1  UNL1        0.2526
     22 O          63.2610   84.1167    8.9505 O.3     1  UNL1       -0.4724
     23 C          63.9384   82.2450   10.6201 C.3     1  UNL1        0.0512
     24 C          63.6457   83.6883   10.3356 C.3     1  UNL1        0.2057
     25 C          59.9793   93.4301    2.9104 C.3     1  UNL1        0.1612
     26 C          59.9544   93.1103    1.4452 C.2     1  UNL1        0.3165
     27 O          60.7166   91.9289    0.9223 O.2     1  UNL1       -0.2465
     28 N          59.1674   93.9719    0.5028 N.am    1  UNL1       -0.1709
     29 H          58.6671   94.7473    0.8460 H       1  UNL1        0.3011
     30 C          59.1425   93.6521   -0.9626 C.2     1  UNL1        0.3352
     31 N          60.2109   93.9948   -1.9581 N.2     1  UNL1        0.0754
     32 N          59.7735   93.4881   -3.3004 N.2     1  UNL1       -0.0428
     33 C          58.4347   92.8321   -3.1345 C.2     1  UNL1        0.0944
     34 C          58.0447   92.9336   -1.6897 C.3     1  UNL1        0.1480
     35 C          56.7792   92.4086   -1.0790 C.3     1  UNL1        0.0190
     36 C          57.6276   92.1879   -4.2225 C.3     1  UNL1        0.0459
     37 C          56.4252   92.8900   -4.7802 C.3     1  UNL1        0.0065
@<TRIPOS>BOND
     1    23    24    1
     2    24    22    1
     3    22    10    1
     4    10    11   ar
     5    11    12   ar
     6    12    13   ar
     7    13    14   ar
     8    14    15   ar
     9    15    16   ar
    10    16     9    1
    11     9     1    1
    12     1     2   ar
    13     2     3   ar
    14     3     4   ar
    15     4    25    1
    16    25    26    1
    17    26    27    2
    18    26    28   am
    19    28    30    1
    20    30    31    2
    21    31    32    1
    22    32    33    2
    23    33    36    1
    24    36    37    1
    25    33    34    1
    26    34    35    1
    27     4     5   ar
    28     5     7    1
    29     7     8    1
    30     5     6   ar
    31    16    17   ar
    32    17    18   ar
    33    18    19   ar
    34    19    20    1
    35    20    21    1
    36    19    10   ar
    37    17    12   ar
    38     6     1   ar
    39    34    30    1
    40    28    29    1
