@<TRIPOS>MOLECULE
*****
 56 63 0 0 0
SMALL
GASTEIGER

@<TRIPOS>ATOM
      1 C          62.3212   95.6555   -4.0494 C.3     1  UNL1        0.1445
      2 C          63.6606   95.2636   -3.4996 C.3     1  UNL1        0.0322
      3 C          63.7518   94.5549   -2.1806 C.3     1  UNL1        0.0049
      4 C          65.0913   94.1630   -1.6309 C.3     1  UNL1        0.0002
      5 C          62.5036   94.2382   -1.4115 C.3     1  UNL1        0.0298
      6 C          61.1641   94.6302   -1.9613 C.3     1  UNL1        0.1418
      7 O          61.0729   95.3388   -3.2802 O.3     1  UNL1       -0.3537
      8 C          60.1149   94.1883   -0.9846 C.3     1  UNL1        0.1373
      9 O          58.6346   94.3781   -1.1349 O.3     1  UNL1       -0.3820
     10 C          60.8059   93.5233    0.1688 C.3     1  UNL1        0.0272
     11 C          59.3119   93.5667    0.2954 C.3     1  UNL1        0.0025
     12 C          60.2815   92.8936    1.4252 C.3     1  UNL1        0.0023
     13 C          58.8053   92.8627    1.6890 C.3     1  UNL1        0.0001
     14 C          58.2810   92.2330    2.9454 C.3     1  UNL1        0.0001
     15 C          59.2329   91.6342    3.9380 C.3     1  UNL1        0.0023
     16 C          58.7086   91.0045    5.1944 C.3     1  UNL1        0.0251
     17 C          57.7364   90.5250    6.2311 C.3     1  UNL1        0.0024
     18 C          57.4190   91.4368    4.5619 C.3     1  UNL1        0.0024
     19 C          59.6606   90.4057    6.1870 C.3     1  UNL1        0.1177
     20 C          61.1368   90.4366    5.9232 C.3     1  UNL1        0.0296
     21 C          61.6612   91.0663    4.6668 C.3     1  UNL1        0.0025
     22 C          60.7092   91.6651    3.6742 C.3     1  UNL1        0.0002
     23 C          62.1855   91.6960    3.4103 C.3     1  UNL1        0.0000
     24 C          61.2336   92.2948    2.4178 C.3     1  UNL1        0.0001
     25 C          62.7098   92.3257    2.1539 C.3     1  UNL1        0.0000
     26 C          63.2341   92.9554    0.8975 C.3     1  UNL1        0.0002
     27 C          62.2822   93.5541   -0.0951 C.3     1  UNL1        0.0046
     28 C          63.7246   93.6590   -0.4932 C.3     1  UNL1        0.0002
     29 H          58.1805   94.0019   -0.3647 H       1  UNL1        0.2104
     30 C          62.2299   96.3641   -5.3683 C.3     1  UNL1        0.1664
     31 C          63.4658   96.5809   -6.1903 C.3     1  UNL1        0.1156
     32 C          62.6829   96.3059   -7.4399 C.3     1  UNL1        0.0319
     33 C          64.2487   96.8559   -4.9407 C.3     1  UNL1        0.0319
     34 O          64.7017   96.7976   -7.0123 O.3     1  UNL1       -0.3843
     35 H          64.4907   96.6767   -7.9513 H       1  UNL1        0.2103
     36 O          60.9028   96.8559   -5.8652 O.3     1  UNL1       -0.3514
     37 C          58.7421   96.2402   -7.1697 C.3     1  UNL1        0.0346
     38 C          59.8112   95.8773   -6.1821 C.3     1  UNL1        0.1423
     39 O          59.1362   89.7760    7.4434 O.3     1  UNL1       -0.3320
     40 C          60.0898   89.2035    8.4498 C.3     1  UNL1        0.2518
     41 C          60.5290   90.0303    9.6219 C.3     1  UNL1        0.1343
     42 N          61.4825   89.4577   10.6283 N.3     1  UNL1       -0.2663
     43 C          61.9969   88.0585   10.4627 C.3     1  UNL1        0.1048
     44 C          61.5578   87.2317    9.2907 C.3     1  UNL1        0.1621
     45 O          60.6042   87.8042    8.2842 O.3     1  UNL1       -0.3280
     46 C          61.9217   90.2845   11.8003 C.3     1  UNL1        0.0751
     47 C          63.2391   91.0006   11.7614 C.3     1  UNL1        0.0479
     48 C          64.2853   91.3529   12.7770 C.3     1  UNL1        0.0749
     49 N          65.1023   92.0133   11.7064 N.3     1  UNL1       -0.2705
     50 C          64.0562   91.6611   10.6907 C.3     1  UNL1        0.0749
     51 C          66.4197   92.7294   11.6675 C.3     1  UNL1        0.0993
     52 C          66.8138   93.5092   10.4481 C.3     1  UNL1        0.1031
     53 C          65.9947   94.6712   10.9264 C.3     1  UNL1        0.0307
     54 C          67.6329   92.3471    9.9698 C.3     1  UNL1        0.0307
     55 O          67.2079   94.2888    9.2288 O.3     1  UNL1       -0.3854
     56 H          66.7935   95.1653    9.2576 H       1  UNL1        0.2103
@<TRIPOS>BOND
     1    37    38    1
     2    38    36    1
     3    30    36    1
     4    30     1    1
     5     1     2    1
     6     2     3    1
     7     3     4    1
     8     5     3    1
     9     5     6    1
    10     6     7    1
    11     6     8    1
    12     8     9    1
    13     8    10    1
    14    10    11    1
    15    10    12    1
    16    12    13    1
    17    13    14    1
    18    15    14    1
    19    15    16    1
    20    16    17    1
    21    16    18    1
    22    16    19    1
    23    19    39    1
    24    40    39    1
    25    40    41    1
    26    41    42    1
    27    42    46    1
    28    46    47    1
    29    47    48    1
    30    48    49    1
    31    49    51    1
    32    51    52    1
    33    52    53    1
    34    52    54    1
    35    52    55    1
    36    49    50    1
    37    42    43    1
    38    43    44    1
    39    44    45    1
    40    19    20    1
    41    20    21    1
    42    22    21    1
    43    22    23    1
    44    24    23    1
    45    24    25    1
    46    25    26    1
    47    26    27    1
    48    27    28    1
    49    30    31    1
    50    31    32    1
    51    31    33    1
    52    31    34    1
    53     7     1    1
    54    27    10    1
    55    27     5    1
    56    24    12    1
    57    22    15    1
    58    45    40    1
    59    24    22    1
    60    50    47    1
    61     9    29    1
    62    55    56    1
    63    34    35    1
@<TRIPOS>MOLECULE
*****
 56 63 0 0 0
SMALL
GASTEIGER

@<TRIPOS>ATOM
      1 C          62.6435   95.6105   -3.8895 C.3     1  UNL1        0.1445
      2 C          63.9623   95.2083   -3.2987 C.3     1  UNL1        0.0322
      3 C          64.0074   94.4999   -1.9772 C.3     1  UNL1        0.0049
      4 C          65.3262   94.0976   -1.3865 C.3     1  UNL1        0.0002
      5 C          62.7336   94.1938   -1.2466 C.3     1  UNL1        0.0298
      6 C          61.4148   94.5961   -1.8373 C.3     1  UNL1        0.1418
      7 O          61.3698   95.3044   -3.1588 O.3     1  UNL1       -0.3537
      8 C          60.3326   94.1634   -0.8931 C.3     1  UNL1        0.1373
      9 O          58.8592   94.3650   -1.0888 O.3     1  UNL1       -0.3820
     10 C          60.9826   93.4937    0.2812 C.3     1  UNL1        0.0272
     11 C          59.4858   93.5492    0.3620 C.3     1  UNL1        0.0025
     12 C          60.4149   92.8692    1.5213 C.3     1  UNL1        0.0023
     13 C          58.9311   92.8503    1.7398 C.3     1  UNL1        0.0001
     14 C          58.3634   92.2258    2.9798 C.3     1  UNL1        0.0001
     15 C          59.2796   91.6201    4.0014 C.3     1  UNL1        0.0023
     16 C          58.7120   90.9956    5.2415 C.3     1  UNL1        0.0251
     17 C          57.7046   90.5246    6.2481 C.3     1  UNL1        0.0024
     18 C          57.4459   91.4377    4.5695 C.3     1  UNL1        0.0024
     19 C          59.6282   90.3899    6.2631 C.3     1  UNL1        0.1177
     20 C          61.1121   90.4087    6.0446 C.3     1  UNL1        0.0296
     21 C          61.6797   91.0332    4.8045 C.3     1  UNL1        0.0025
     22 C          60.7635   91.6389    3.7830 C.3     1  UNL1        0.0002
     23 C          62.2474   91.6577    3.5645 C.3     1  UNL1        0.0000
     24 C          61.3312   92.2634    2.5429 C.3     1  UNL1        0.0001
     25 C          62.8150   92.2823    2.3244 C.3     1  UNL1        0.0000
     26 C          63.3827   92.9068    1.0844 C.3     1  UNL1        0.0002
     27 C          62.4665   93.5125    0.0628 C.3     1  UNL1        0.0046
     28 C          63.9212   93.6055   -0.2910 C.3     1  UNL1        0.0002
     29 H          58.3787   93.9930   -0.3327 H       1  UNL1        0.2104
     30 C          62.5985   96.3189   -5.2109 C.3     1  UNL1        0.1664
     31 C          63.8543   96.4902   -6.0133 C.3     1  UNL1        0.1156
     32 C          63.1067   96.1246   -7.2613 C.3     1  UNL1        0.0319
     33 C          64.6018   96.8558   -4.7652 C.3     1  UNL1        0.0319
     34 O          65.1100   96.6615   -6.8156 O.3     1  UNL1       -0.3843
     35 H          64.9250   96.4756   -7.7495 H       1  UNL1        0.2103
     36 O          61.2977   96.8559   -5.7300 O.3     1  UNL1       -0.3514
     37 C          58.7345   96.5107   -5.9767 C.3     1  UNL1        0.0346
     38 C          60.1197   95.9415   -5.8911 C.3     1  UNL1        0.1423
     39 O          59.0606   89.7653    7.5031 O.3     1  UNL1       -0.3320
     40 C          59.9750   89.1362    8.5121 C.3     1  UNL1        0.2518
     41 C          60.5536   87.7764    8.2549 C.3     1  UNL1        0.1343
     42 N          61.4680   87.1473    9.2638 N.3     1  UNL1       -0.2663
     43 C          61.8039   87.8780   10.5300 C.3     1  UNL1        0.1048
     44 C          61.2253   89.2378   10.7873 C.3     1  UNL1        0.1621
     45 O          60.3109   89.8669    9.7783 O.3     1  UNL1       -0.3280
     46 C          62.0465   85.7875    9.0066 C.3     1  UNL1        0.0751
     47 C          62.6375   84.9978   10.1367 C.3     1  UNL1        0.0479
     48 C          62.4033   84.9255   11.6165 C.3     1  UNL1        0.0749
     49 N          63.4733   83.8810   11.7349 N.3     1  UNL1       -0.2705
     50 C          63.7075   83.9532   10.2551 C.3     1  UNL1        0.0749
     51 C          64.0642   83.0913   12.8650 C.3     1  UNL1        0.0993
     52 C          63.2669   82.8571   14.1138 C.3     1  UNL1        0.1031
     53 C          62.5180   81.7528   13.4286 C.3     1  UNL1        0.0307
     54 C          64.0158   83.9615   14.7992 C.3     1  UNL1        0.0307
     55 O          62.4696   82.6229   15.3626 O.3     1  UNL1       -0.3854
     56 H          61.8411   81.8992   15.2139 H       1  UNL1        0.2103
@<TRIPOS>BOND
     1    37    38    1
     2    38    36    1
     3    30    36    1
     4    30     1    1
     5     1     2    1
     6     2     3    1
     7     3     4    1
     8     5     3    1
     9     5     6    1
    10     6     7    1
    11     6     8    1
    12     8     9    1
    13     8    10    1
    14    10    11    1
    15    10    12    1
    16    12    13    1
    17    13    14    1
    18    15    14    1
    19    15    16    1
    20    16    17    1
    21    16    18    1
    22    16    19    1
    23    19    39    1
    24    40    39    1
    25    40    41    1
    26    41    42    1
    27    42    46    1
    28    46    47    1
    29    47    48    1
    30    48    49    1
    31    49    51    1
    32    51    52    1
    33    52    53    1
    34    52    54    1
    35    52    55    1
    36    49    50    1
    37    42    43    1
    38    43    44    1
    39    44    45    1
    40    19    20    1
    41    20    21    1
    42    22    21    1
    43    22    23    1
    44    24    23    1
    45    24    25    1
    46    25    26    1
    47    26    27    1
    48    27    28    1
    49    30    31    1
    50    31    32    1
    51    31    33    1
    52    31    34    1
    53     7     1    1
    54    27    10    1
    55    27     5    1
    56    24    12    1
    57    22    15    1
    58    45    40    1
    59    24    22    1
    60    50    47    1
    61     9    29    1
    62    55    56    1
    63    34    35    1
