@<TRIPOS>MOLECULE
*****
 32 35 0 0 0
SMALL
GASTEIGER

@<TRIPOS>ATOM
      1 C          65.3416   92.1186   12.5879 C.2     1  UNL1        0.1397
      2 C          64.5735   91.0202   13.2612 C.2     1  UNL1        0.1355
      3 N          63.5238   90.2644   12.5016 N.pl3   1  UNL1       -0.1998
      4 C          63.2423   90.6070   11.0687 C.2     1  UNL1        0.3442
      5 N          64.0104   91.7054   10.3954 N.2     1  UNL1       -0.0580
      6 C          65.0601   92.4612   11.1550 C.3     1  UNL1        0.2692
      7 H          63.0197   89.5434   12.9436 H       1  UNL1        0.2983
      8 C          65.8282   93.5597   10.4816 C.ar    1  UNL1        0.0371
      9 C          65.2642   94.9488   10.4336 C.ar    1  UNL1        0.0030
     10 C          66.0323   96.0472    9.7602 C.ar    1  UNL1        0.0295
     11 C          67.3645   95.7566    9.1349 C.ar    1  UNL1        0.1406
     12 F          68.1325   96.8551    8.4616 F       1  UNL1       -0.2042
     13 C          67.9285   94.3675    9.1830 C.ar    1  UNL1        0.0362
     14 C          67.1603   93.2690    9.8564 C.ar    1  UNL1        0.0372
     15 BR         67.7243   91.8800    9.9044 Br      1  UNL1       -0.0491
     16 C          62.1926   89.8512   10.3091 C.ar    1  UNL1        0.1931
     17 N          60.9739   90.4419    9.6643 N.ar    1  UNL1       -0.2297
     18 C          60.2055   89.3278    9.0176 C.ar    1  UNL1        0.1067
     19 C          60.9492   88.0485    9.2627 C.ar    1  UNL1        0.0577
     20 S          62.1774   88.3720   10.0609 S.2     1  UNL1       -0.0586
     21 C          66.3913   92.8744   13.3475 C.2     1  UNL1        0.3447
     22 O          66.0753   94.2229   13.9234 O.2     1  UNL1       -0.2450
     23 O          67.7568   92.2816   13.5313 O.3     1  UNL1       -0.4455
     24 C          67.9903   92.3561   16.1179 C.3     1  UNL1        0.0513
     25 C          68.5599   92.6130   14.7541 C.3     1  UNL1        0.2089
     26 C          64.8550   90.6775   14.6942 C.3     1  UNL1        0.1405
     27 N          64.2934   89.4202   15.2890 N.3     1  UNL1       -0.2617
     28 C          64.6305   88.0891   14.6850 C.3     1  UNL1        0.1050
     29 C          64.0689   86.8318   15.2798 C.3     1  UNL1        0.1595
     30 O          63.1702   86.9055   16.4785 O.3     1  UNL1       -0.3508
     31 C          62.8331   88.2365   17.0825 C.3     1  UNL1        0.1595
     32 C          63.3947   89.4938   16.4877 C.3     1  UNL1        0.1050
@<TRIPOS>BOND
     1    24    25    1
     2    25    23    1
     3    23    21    1
     4    21    22    2
     5    21     1    1
     6     1     2    2
     7     2    26    1
     8    26    27    1
     9    27    28    1
    10    28    29    1
    11    29    30    1
    12    30    31    1
    13    31    32    1
    14     2     3    1
    15     3     4    1
    16     4    16    1
    17    16    17   ar
    18    17    18   ar
    19    18    19   ar
    20    19    20   ar
    21     4     5    2
    22     5     6    1
    23     6     8    1
    24     8     9   ar
    25     9    10   ar
    26    10    11   ar
    27    11    12    1
    28    11    13   ar
    29    13    14   ar
    30    14    15    1
    31     6     1    1
    32    14     8   ar
    33    32    27    1
    34    20    16   ar
    35     3     7    1
@<TRIPOS>MOLECULE
*****
 32 35 0 0 0
SMALL
GASTEIGER

@<TRIPOS>ATOM
      1 C          63.6805   85.5164   13.6710 C.2     1  UNL1        0.1397
      2 C          63.8329   87.0030   13.5419 C.2     1  UNL1        0.1355
      3 N          63.0548   87.7489   12.4987 N.pl3   1  UNL1       -0.1998
      4 C          62.1242   87.0082   11.5848 C.2     1  UNL1        0.3442
      5 N          61.9718   85.5216   11.7140 N.2     1  UNL1       -0.0580
      6 C          62.7499   84.7757   12.7571 C.3     1  UNL1        0.2692
      7 H          63.1548   88.7246   12.4139 H       1  UNL1        0.2983
      8 C          62.5975   83.2890   12.8863 C.ar    1  UNL1        0.0371
      9 C          61.8332   82.7109   14.0403 C.ar    1  UNL1        0.0030
     10 C          61.6808   81.2244   14.1695 C.ar    1  UNL1        0.0295
     11 C          62.2926   80.3158   13.1446 C.ar    1  UNL1        0.1406
     12 F          62.1401   78.8292   13.2738 F       1  UNL1       -0.2042
     13 C          63.0569   80.8938   11.9906 C.ar    1  UNL1        0.0362
     14 C          63.2093   82.3805   11.8615 C.ar    1  UNL1        0.0372
     15 BR         63.9736   82.9586   10.7075 Br      1  UNL1       -0.0491
     16 C          61.3460   87.7541   10.5417 C.ar    1  UNL1        0.1931
     17 N          61.1943   89.2437   10.4521 N.ar    1  UNL1       -0.2297
     18 C          60.3375   89.5516    9.2600 C.ar    1  UNL1        0.1067
     19 C          59.9596   88.2522    8.6128 C.ar    1  UNL1        0.0577
     20 S          60.5829   87.1413    9.4049 S.2     1  UNL1       -0.0586
     21 C          64.4587   84.7706   14.7142 C.2     1  UNL1        0.3447
     22 O          65.8135   84.2168   14.3860 O.2     1  UNL1       -0.2450
     23 O          63.8820   84.5785   16.0855 O.3     1  UNL1       -0.4455
     24 C          62.6801   86.2499   17.6704 C.3     1  UNL1        0.0513
     25 C          62.6453   85.3245   16.4903 C.3     1  UNL1        0.2089
     26 C          64.7635   87.7438   14.4558 C.3     1  UNL1        0.1405
     27 N          64.3996   89.1136   14.9471 N.3     1  UNL1       -0.2617
     28 C          64.9864   90.3269   14.2888 C.3     1  UNL1        0.1050
     29 C          64.6225   91.6967   14.7801 C.3     1  UNL1        0.1595
     30 O          63.6717   91.8530   15.9297 O.3     1  UNL1       -0.3508
     31 C          63.0849   90.6397   16.5880 C.3     1  UNL1        0.1595
     32 C          63.4488   89.2700   16.0967 C.3     1  UNL1        0.1050
@<TRIPOS>BOND
     1    24    25    1
     2    25    23    1
     3    23    21    1
     4    21    22    2
     5    21     1    1
     6     1     2    2
     7     2    26    1
     8    26    27    1
     9    27    28    1
    10    28    29    1
    11    29    30    1
    12    30    31    1
    13    31    32    1
    14     2     3    1
    15     3     4    1
    16     4    16    1
    17    16    17   ar
    18    17    18   ar
    19    18    19   ar
    20    19    20   ar
    21     4     5    2
    22     5     6    1
    23     6     8    1
    24     8     9   ar
    25     9    10   ar
    26    10    11   ar
    27    11    12    1
    28    11    13   ar
    29    13    14   ar
    30    14    15    1
    31     6     1    1
    32    14     8   ar
    33    32    27    1
    34    20    16   ar
    35     3     7    1
@<TRIPOS>MOLECULE
*****
 32 35 0 0 0
SMALL
GASTEIGER

@<TRIPOS>ATOM
      1 C          63.2979   86.4370   13.1306 C.2     1  UNL1        0.1397
      2 C          63.1804   87.8711   12.7073 C.2     1  UNL1        0.1355
      3 N          62.3510   88.2346   11.5114 N.pl3   1  UNL1       -0.1998
      4 C          61.6392   87.1639   10.7388 C.2     1  UNL1        0.3442
      5 N          61.7568   85.7297   11.1621 N.2     1  UNL1       -0.0580
      6 C          62.5861   85.3663   12.3580 C.3     1  UNL1        0.2692
      7 H          62.2739   89.1760   11.2336 H       1  UNL1        0.2983
      8 C          62.7036   83.9320   12.7813 C.ar    1  UNL1        0.0371
      9 C          62.0687   83.4731   14.0605 C.ar    1  UNL1        0.0030
     10 C          62.1862   82.0389   14.4838 C.ar    1  UNL1        0.0295
     11 C          62.9386   81.0635   13.6279 C.ar    1  UNL1        0.1406
     12 F          63.0561   79.6293   14.0512 F       1  UNL1       -0.2042
     13 C          63.5735   81.5223   12.3487 C.ar    1  UNL1        0.0362
     14 C          63.4560   82.9566   11.9254 C.ar    1  UNL1        0.0372
     15 BR         64.0909   83.4155   10.6462 Br      1  UNL1       -0.0491
     16 C          60.8099   87.5274    9.5430 C.ar    1  UNL1        0.1931
     17 N          60.4958   88.9184    9.0776 N.ar    1  UNL1       -0.2297
     18 C          59.6408   88.8144    7.8495 C.ar    1  UNL1        0.1067
     19 C          59.4265   87.3591    7.5559 C.ar    1  UNL1        0.0577
     20 S          60.1490   86.5638    8.6025 S.2     1  UNL1       -0.0586
     21 C          64.1272   86.0735   14.3264 C.2     1  UNL1        0.3447
     22 O          65.2621   85.1029   14.1851 O.2     1  UNL1       -0.2450
     23 O          63.8217   86.6806   15.6636 O.3     1  UNL1       -0.4455
     24 C          62.6142   86.5096   17.9576 C.3     1  UNL1        0.0513
     25 C          63.1819   85.8496   16.7360 C.3     1  UNL1        0.2089
     26 C          63.8922   88.9419   13.4798 C.3     1  UNL1        0.1405
     27 N          64.2489   90.2370   12.8124 N.3     1  UNL1       -0.2617
     28 C          65.2018   91.1858   13.4771 C.3     1  UNL1        0.1050
     29 C          65.5586   92.4809   12.8095 C.3     1  UNL1        0.1595
     30 O          64.9624   92.8272   11.4774 O.3     1  UNL1       -0.3508
     31 C          64.0095   91.8784   10.8127 C.3     1  UNL1        0.1595
     32 C          63.6528   90.5833   11.4802 C.3     1  UNL1        0.1050
@<TRIPOS>BOND
     1    24    25    1
     2    25    23    1
     3    23    21    1
     4    21    22    2
     5    21     1    1
     6     1     2    2
     7     2    26    1
     8    26    27    1
     9    27    28    1
    10    28    29    1
    11    29    30    1
    12    30    31    1
    13    31    32    1
    14     2     3    1
    15     3     4    1
    16     4    16    1
    17    16    17   ar
    18    17    18   ar
    19    18    19   ar
    20    19    20   ar
    21     4     5    2
    22     5     6    1
    23     6     8    1
    24     8     9   ar
    25     9    10   ar
    26    10    11   ar
    27    11    12    1
    28    11    13   ar
    29    13    14   ar
    30    14    15    1
    31     6     1    1
    32    14     8   ar
    33    32    27    1
    34    20    16   ar
    35     3     7    1
@<TRIPOS>MOLECULE
*****
 32 35 0 0 0
SMALL
GASTEIGER

@<TRIPOS>ATOM
      1 C          64.9278   91.1849   12.9327 C.2     1  UNL1        0.1397
      2 C          63.8084   90.2993   12.4715 C.2     1  UNL1        0.1355
      3 N          63.4565   89.0674   13.2516 N.pl3   1  UNL1       -0.1998
      4 C          64.2239   88.7210   14.4929 C.2     1  UNL1        0.3442
      5 N          65.3433   89.6066   14.9541 N.2     1  UNL1       -0.0580
      6 C          65.6952   90.8385   14.1741 C.3     1  UNL1        0.2692
      7 H          62.7218   88.4862   12.9488 H       1  UNL1        0.2983
      8 C          66.8146   91.7240   14.6354 C.ar    1  UNL1        0.0371
      9 C          68.1149   91.7403   13.8876 C.ar    1  UNL1        0.0030
     10 C          69.2343   92.6258   14.3489 C.ar    1  UNL1        0.0295
     11 C          69.0535   93.4951   15.5579 C.ar    1  UNL1        0.1406
     12 F          70.1729   94.3806   16.0192 F       1  UNL1       -0.2042
     13 C          67.7533   93.4788   16.3057 C.ar    1  UNL1        0.0362
     14 C          66.6338   92.5932   15.8444 C.ar    1  UNL1        0.0372
     15 BR         65.3336   92.5769   16.5921 Br      1  UNL1       -0.0491
     16 C          63.8720   87.4891   15.2730 C.ar    1  UNL1        0.1931
     17 N          63.0689   87.4467   16.5392 N.ar    1  UNL1       -0.2297
     18 C          62.9620   86.0147   16.9726 C.ar    1  UNL1        0.1067
     19 C          63.6990   85.1720   15.9743 C.ar    1  UNL1        0.0577
     20 S          64.2614   86.0832   14.9239 S.2     1  UNL1       -0.0586
     21 C          65.2797   92.4168   12.1526 C.2     1  UNL1        0.3447
     22 O          65.3298   93.7499   12.8383 O.2     1  UNL1       -0.2450
     23 O          65.5815   92.3156   10.6868 O.3     1  UNL1       -0.4455
     24 C          68.0672   92.0573    9.9764 C.3     1  UNL1        0.0513
     25 C          66.8443   92.9108   10.1382 C.3     1  UNL1        0.2089
     26 C          63.0409   90.6457   11.2301 C.3     1  UNL1        0.1405
     27 N          61.9698   89.7230   10.7286 N.3     1  UNL1       -0.2617
     28 C          62.3322   88.5550    9.8600 C.3     1  UNL1        0.1050
     29 C          61.2611   87.6324    9.3586 C.3     1  UNL1        0.1595
     30 O          59.8276   87.8777    9.7256 O.3     1  UNL1       -0.3508
     31 C          59.4651   89.0458   10.5942 C.3     1  UNL1        0.1595
     32 C          60.5362   89.9684   11.0957 C.3     1  UNL1        0.1050
@<TRIPOS>BOND
     1    24    25    1
     2    25    23    1
     3    23    21    1
     4    21    22    2
     5    21     1    1
     6     1     2    2
     7     2    26    1
     8    26    27    1
     9    27    28    1
    10    28    29    1
    11    29    30    1
    12    30    31    1
    13    31    32    1
    14     2     3    1
    15     3     4    1
    16     4    16    1
    17    16    17   ar
    18    17    18   ar
    19    18    19   ar
    20    19    20   ar
    21     4     5    2
    22     5     6    1
    23     6     8    1
    24     8     9   ar
    25     9    10   ar
    26    10    11   ar
    27    11    12    1
    28    11    13   ar
    29    13    14   ar
    30    14    15    1
    31     6     1    1
    32    14     8   ar
    33    32    27    1
    34    20    16   ar
    35     3     7    1
@<TRIPOS>MOLECULE
*****
 32 35 0 0 0
SMALL
GASTEIGER

@<TRIPOS>ATOM
      1 C          63.4987   89.6513   12.3893 C.2     1  UNL1        0.1397
      2 C          62.7404   88.5731   11.6734 C.2     1  UNL1        0.1355
      3 N          62.7400   87.1728   12.2113 N.pl3   1  UNL1       -0.1998
      4 C          63.4978   86.8507   13.4650 C.2     1  UNL1        0.3442
      5 N          64.2561   87.9289   14.1809 N.2     1  UNL1       -0.0580
      6 C          64.2565   89.3292   13.6430 C.3     1  UNL1        0.2692
      7 H          62.2423   86.4652   11.7414 H       1  UNL1        0.2983
      8 C          65.0148   90.4074   14.3590 C.ar    1  UNL1        0.0371
      9 C          66.3010   90.9259   13.7872 C.ar    1  UNL1        0.0030
     10 C          67.0593   92.0040   14.5030 C.ar    1  UNL1        0.0295
     11 C          66.5315   92.5637   15.7908 C.ar    1  UNL1        0.1406
     12 F          67.2898   93.6419   16.5066 F       1  UNL1       -0.2042
     13 C          65.2453   92.0452   16.3625 C.ar    1  UNL1        0.0362
     14 C          64.4870   90.9670   15.6466 C.ar    1  UNL1        0.0372
     15 BR         63.2008   90.4486   16.2184 Br      1  UNL1       -0.0491
     16 C          63.4974   85.4505   14.0028 C.ar    1  UNL1        0.1931
     17 N          62.3053   84.5460   14.1061 N.ar    1  UNL1       -0.2297
     18 C          62.7601   83.2454   14.6990 C.ar    1  UNL1        0.1067
     19 C          64.2334   83.3460   14.9621 C.ar    1  UNL1        0.0577
     20 S          64.6891   84.7088   14.5319 S.2     1  UNL1       -0.0586
     21 C          63.4991   91.0515   11.8514 C.2     1  UNL1        0.3447
     22 O          62.5990   92.0877   12.4566 O.2     1  UNL1       -0.2450
     23 O          64.3995   91.4156   10.7084 O.3     1  UNL1       -0.4455
     24 C          66.6872   92.6269   10.4861 C.3     1  UNL1        0.0513
     25 C          65.2144   92.6736   10.7669 C.3     1  UNL1        0.2089
     26 C          61.9825   88.8951   10.4196 C.3     1  UNL1        0.1405
     27 N          61.4935   87.7880    9.5335 N.3     1  UNL1       -0.2617
     28 C          62.4449   86.7279    9.0635 C.3     1  UNL1        0.1050
     29 C          61.9559   85.6207    8.1774 C.3     1  UNL1        0.1595
     30 O          60.5156   85.5738    7.7613 O.3     1  UNL1       -0.3508
     31 C          59.5642   86.6340    8.2313 C.3     1  UNL1        0.1595
     32 C          60.0531   87.7411    9.1174 C.3     1  UNL1        0.1050
@<TRIPOS>BOND
     1    24    25    1
     2    25    23    1
     3    23    21    1
     4    21    22    2
     5    21     1    1
     6     1     2    2
     7     2    26    1
     8    26    27    1
     9    27    28    1
    10    28    29    1
    11    29    30    1
    12    30    31    1
    13    31    32    1
    14     2     3    1
    15     3     4    1
    16     4    16    1
    17    16    17   ar
    18    17    18   ar
    19    18    19   ar
    20    19    20   ar
    21     4     5    2
    22     5     6    1
    23     6     8    1
    24     8     9   ar
    25     9    10   ar
    26    10    11   ar
    27    11    12    1
    28    11    13   ar
    29    13    14   ar
    30    14    15    1
    31     6     1    1
    32    14     8   ar
    33    32    27    1
    34    20    16   ar
    35     3     7    1
@<TRIPOS>MOLECULE
*****
 32 35 0 0 0
SMALL
GASTEIGER

@<TRIPOS>ATOM
      1 C          62.8676   88.7998   11.9884 C.2     1  UNL1        0.1397
      2 C          62.2929   87.6211   11.2600 C.2     1  UNL1        0.1355
      3 N          62.5127   86.2340   11.7868 N.pl3   1  UNL1       -0.1998
      4 C          63.3071   86.0254   13.0419 C.2     1  UNL1        0.3442
      5 N          63.8818   87.2041   13.7702 N.2     1  UNL1       -0.0580
      6 C          63.6620   88.5913   13.2435 C.3     1  UNL1        0.2692
      7 H          62.1355   85.4604   11.3087 H       1  UNL1        0.2983
      8 C          64.2367   89.7699   13.9719 C.ar    1  UNL1        0.0371
      9 C          65.2524   90.6450   13.2991 C.ar    1  UNL1        0.0030
     10 C          65.8271   91.8236   14.0274 C.ar    1  UNL1        0.0295
     11 C          65.3861   92.1272   15.4287 C.ar    1  UNL1        0.1406
     12 F          65.9608   93.3058   16.1570 F       1  UNL1       -0.2042
     13 C          64.3704   91.2522   16.1015 C.ar    1  UNL1        0.0362
     14 C          63.7957   90.0735   15.3731 C.ar    1  UNL1        0.0372
     15 BR         62.7801   89.1984   16.0459 Br      1  UNL1       -0.0491
     16 C          63.5269   84.6383   13.5686 C.ar    1  UNL1        0.1931
     17 N          63.6212   83.3875   12.7461 N.ar    1  UNL1       -0.2297
     18 C          63.8436   82.2345   13.6795 C.ar    1  UNL1        0.1067
     19 C          63.8867   82.7727   15.0789 C.ar    1  UNL1        0.0577
     20 S          63.6910   84.2583   15.0104 S.2     1  UNL1       -0.0586
     21 C          62.6478   90.1869   11.4616 C.2     1  UNL1        0.3447
     22 O          63.6422   90.7977   10.5192 O.2     1  UNL1       -0.2450
     23 O          61.4336   90.9634   11.8772 O.3     1  UNL1       -0.4455
     24 C          59.1764   89.7106   12.1706 C.3     1  UNL1        0.0513
     25 C          60.0821   90.5809   11.3506 C.3     1  UNL1        0.2089
     26 C          61.4984   87.8296   10.0048 C.3     1  UNL1        0.1405
     27 N          61.5046   86.7827    8.9307 N.3     1  UNL1       -0.2617
     28 C          62.7607   86.0172    8.6367 C.3     1  UNL1        0.1050
     29 C          62.7668   84.9703    7.5625 C.3     1  UNL1        0.1595
     30 O          61.5170   84.6888    6.7823 O.3     1  UNL1       -0.3508
     31 C          60.2610   85.4543    7.0763 C.3     1  UNL1        0.1595
     32 C          60.2548   86.5012    8.1505 C.3     1  UNL1        0.1050
@<TRIPOS>BOND
     1    24    25    1
     2    25    23    1
     3    23    21    1
     4    21    22    2
     5    21     1    1
     6     1     2    2
     7     2    26    1
     8    26    27    1
     9    27    28    1
    10    28    29    1
    11    29    30    1
    12    30    31    1
    13    31    32    1
    14     2     3    1
    15     3     4    1
    16     4    16    1
    17    16    17   ar
    18    17    18   ar
    19    18    19   ar
    20    19    20   ar
    21     4     5    2
    22     5     6    1
    23     6     8    1
    24     8     9   ar
    25     9    10   ar
    26    10    11   ar
    27    11    12    1
    28    11    13   ar
    29    13    14   ar
    30    14    15    1
    31     6     1    1
    32    14     8   ar
    33    32    27    1
    34    20    16   ar
    35     3     7    1
@<TRIPOS>MOLECULE
*****
 32 35 0 0 0
SMALL
GASTEIGER

@<TRIPOS>ATOM
      1 C          63.4067   86.7171   13.5287 C.2     1  UNL1        0.1397
      2 C          62.7594   85.4364   13.0921 C.2     1  UNL1        0.1355
      3 N          61.9599   85.3945   11.8236 N.pl3   1  UNL1       -0.1998
      4 C          61.8075   86.6334   10.9919 C.2     1  UNL1        0.3442
      5 N          62.4548   87.9142   11.4285 N.2     1  UNL1       -0.0580
      6 C          63.2543   87.9560   12.6970 C.3     1  UNL1        0.2692
      7 H          61.5351   84.5539   11.5370 H       1  UNL1        0.2983
      8 C          63.9016   89.2368   13.1337 C.ar    1  UNL1        0.0371
      9 C          64.6727   89.2872   14.4193 C.ar    1  UNL1        0.0030
     10 C          65.3199   90.5679   14.8560 C.ar    1  UNL1        0.0295
     11 C          65.1960   91.7984   14.0070 C.ar    1  UNL1        0.1406
     12 F          65.8433   93.0792   14.4437 F       1  UNL1       -0.2042
     13 C          64.4249   91.7481   12.7214 C.ar    1  UNL1        0.0362
     14 C          63.7777   90.4672   12.2847 C.ar    1  UNL1        0.0372
     15 BR         63.0065   90.4169   10.9991 Br      1  UNL1       -0.0491
     16 C          61.0080   86.5916    9.7234 C.ar    1  UNL1        0.1931
     17 N          61.2626   85.6927    8.5499 N.ar    1  UNL1       -0.2297
     18 C          60.2254   85.9868    7.5070 C.ar    1  UNL1        0.1067
     19 C          59.3297   87.0676    8.0359 C.ar    1  UNL1        0.0577
     20 S          59.8134   87.4413    9.4057 S.2     1  UNL1       -0.0586
     21 C          64.2062   86.7589   14.7972 C.2     1  UNL1        0.3447
     22 O          65.6242   86.2700   14.8064 O.2     1  UNL1       -0.2450
     23 O          63.5878   87.2897   16.0564 O.3     1  UNL1       -0.4455
     24 C          62.6639   86.8150   18.4379 C.3     1  UNL1        0.0513
     25 C          62.9776   86.3445   17.0485 C.3     1  UNL1        0.2089
     26 C          62.9117   84.1974   13.9238 C.3     1  UNL1        0.1405
     27 N          62.8322   82.8459   13.2779 N.3     1  UNL1       -0.2617
     28 C          62.2557   81.6859   14.0342 C.3     1  UNL1        0.1050
     29 C          62.1762   80.3344   13.3882 C.3     1  UNL1        0.1595
     30 O          62.6732   80.1430   11.9860 O.3     1  UNL1       -0.3508
     31 C          63.2498   81.3030   11.2297 C.3     1  UNL1        0.1595
     32 C          63.3293   82.6545   11.8756 C.3     1  UNL1        0.1050
@<TRIPOS>BOND
     1    24    25    1
     2    25    23    1
     3    23    21    1
     4    21    22    2
     5    21     1    1
     6     1     2    2
     7     2    26    1
     8    26    27    1
     9    27    28    1
    10    28    29    1
    11    29    30    1
    12    30    31    1
    13    31    32    1
    14     2     3    1
    15     3     4    1
    16     4    16    1
    17    16    17   ar
    18    17    18   ar
    19    18    19   ar
    20    19    20   ar
    21     4     5    2
    22     5     6    1
    23     6     8    1
    24     8     9   ar
    25     9    10   ar
    26    10    11   ar
    27    11    12    1
    28    11    13   ar
    29    13    14   ar
    30    14    15    1
    31     6     1    1
    32    14     8   ar
    33    32    27    1
    34    20    16   ar
    35     3     7    1
@<TRIPOS>MOLECULE
*****
 32 35 0 0 0
SMALL
GASTEIGER

@<TRIPOS>ATOM
      1 C          62.7185   86.7963   11.9985 C.2     1  UNL1        0.1397
      2 C          63.4965   86.1647   13.1147 C.2     1  UNL1        0.1355
      3 N          63.4699   84.6763   13.2989 N.pl3   1  UNL1       -0.1998
      4 C          62.6652   83.8195   12.3670 C.2     1  UNL1        0.3442
      5 N          61.8873   84.4511   11.2509 N.2     1  UNL1       -0.0580
      6 C          61.9139   85.9395   11.0667 C.3     1  UNL1        0.2692
      7 H          63.9805   84.2617   14.0315 H       1  UNL1        0.2983
      8 C          61.1359   86.5711    9.9505 C.ar    1  UNL1        0.0371
      9 C          60.0153   87.5190   10.2600 C.ar    1  UNL1        0.0030
     10 C          59.2373   88.1506    9.1439 C.ar    1  UNL1        0.0295
     11 C          59.5798   87.8343    7.7182 C.ar    1  UNL1        0.1406
     12 F          58.8018   88.4659    6.6021 F       1  UNL1       -0.2042
     13 C          60.7004   86.8864    7.4086 C.ar    1  UNL1        0.0362
     14 C          61.4785   86.2548    8.5248 C.ar    1  UNL1        0.0372
     15 BR         62.5991   85.3070    8.2152 Br      1  UNL1       -0.0491
     16 C          62.6386   82.3311   12.5513 C.ar    1  UNL1        0.1931
     17 N          62.9678   81.3072   11.5057 N.ar    1  UNL1       -0.2297
     18 C          62.8107   79.9485   12.1216 C.ar    1  UNL1        0.1067
     19 C          62.3844   80.1327   13.5479 C.ar    1  UNL1        0.0577
     20 S          62.2780   81.6052   13.8134 S.2     1  UNL1       -0.0586
     21 C          62.7452   88.2847   11.8143 C.2     1  UNL1        0.3447
     22 O          62.4100   89.1888   12.9633 O.2     1  UNL1       -0.2450
     23 O          63.1071   88.8690   10.4811 O.3     1  UNL1       -0.4455
     24 C          63.4340   91.4435   10.3571 C.3     1  UNL1        0.0513
     25 C          62.5983   90.2259   10.0938 C.3     1  UNL1        0.2089
     26 C          64.3012   87.0215   14.0466 C.3     1  UNL1        0.1405
     27 N          63.8006   87.2960   15.4336 N.3     1  UNL1       -0.2617
     28 C          63.4970   86.1566   16.3607 C.3     1  UNL1        0.1050
     29 C          62.9963   86.4312   17.7478 C.3     1  UNL1        0.1595
     30 O          62.7992   87.8452   18.2078 O.3     1  UNL1       -0.3508
     31 C          63.1028   88.9847   17.2807 C.3     1  UNL1        0.1595
     32 C          63.6034   88.7101   15.8937 C.3     1  UNL1        0.1050
@<TRIPOS>BOND
     1    24    25    1
     2    25    23    1
     3    23    21    1
     4    21    22    2
     5    21     1    1
     6     1     2    2
     7     2    26    1
     8    26    27    1
     9    27    28    1
    10    28    29    1
    11    29    30    1
    12    30    31    1
    13    31    32    1
    14     2     3    1
    15     3     4    1
    16     4    16    1
    17    16    17   ar
    18    17    18   ar
    19    18    19   ar
    20    19    20   ar
    21     4     5    2
    22     5     6    1
    23     6     8    1
    24     8     9   ar
    25     9    10   ar
    26    10    11   ar
    27    11    12    1
    28    11    13   ar
    29    13    14   ar
    30    14    15    1
    31     6     1    1
    32    14     8   ar
    33    32    27    1
    34    20    16   ar
    35     3     7    1
