@<TRIPOS>MOLECULE
*****
 36 40 0 0 0
SMALL
GASTEIGER

@<TRIPOS>ATOM
      1 C          61.0044   88.0430    9.7384 C.3     0  UNK0        0.2246
      2 C          60.9321   86.5814    9.4089 C.2     0  UNK0        0.0436
      3 C          59.9731   86.0950    8.3631 C.2     0  UNK0        0.0288
      4 C          59.0865   87.0700    7.6468 C.2     0  UNK0        0.0896
      5 N          59.1587   88.5316    7.9763 N.am    0  UNK0       -0.1770
      6 C          60.1177   89.0180    9.0221 C.2     0  UNK0        0.2627
      7 O          60.1900   90.4796    9.3516 O.2     0  UNK0       -0.2719
      8 C          63.9725   87.1062   14.7780 C.3     0  UNK0        0.0312
      9 C          64.1209   88.4028   14.0387 C.2     0  UNK0        0.0124
     10 C          65.0256   89.4725   14.5747 C.2     0  UNK0       -0.0038
     11 C          65.1741   90.7691   13.8354 C.2     0  UNK0        0.0030
     12 C          64.4178   90.9962   12.5600 C.2     0  UNK0        0.0468
     13 C          63.5132   89.9265   12.0239 C.2     0  UNK0        0.2234
     14 N          62.6471   89.8645   10.8008 N.2     0  UNK0       -0.0378
     15 C          61.9633   88.5295   10.7843 C.2     0  UNK0        0.3605
     16 N          62.4068   87.7664   11.9971 N.2     0  UNK0       -0.0547
     17 C          63.3647   88.6298   12.7633 C.3     0  UNK0        0.2975
     18 C          66.0788   91.8388   14.3715 C.ar    0  UNK0        0.0001
     19 C          66.9632   91.5526   15.5487 C.ar    0  UNK0        0.0000
     20 C          67.8679   92.6222   16.0847 C.ar    0  UNK0        0.0000
     21 C          67.8882   93.9781   15.4436 C.ar    0  UNK0        0.0000
     22 C          67.0038   94.2644   14.2663 C.ar    0  UNK0        0.0000
     23 C          66.0991   93.1947   13.7303 C.ar    0  UNK0        0.0000
     24 N          61.8187   85.6063   10.1252 N.pl3   1  PHE1       -0.3342
     25 H          61.6616   85.4046   11.0759 H       1  PHE1        0.1466
     26 CA         62.9448   84.9386    9.3930 C.3     1  PHE1        0.1029
     27 C          63.2533   85.3264    7.9772 C.3     1  PHE1        0.1568
     28 O          62.6063   84.5922    6.8405 O.3     1  PHE1       -0.3802
     29 H          62.9189   83.6740    6.8290 H       1  PHE1        0.2105
     30 CB         63.7623   83.8830   10.0766 C.3     1  PHE1        0.0484
     31 CG         63.3111   83.3192   11.3914 C.ar    1  PHE1       -0.0204
     32 CD1        62.8281   81.9015   11.4735 C.ar    1  PHE1       -0.0042
     33 CE1        62.3769   81.3378   12.7882 C.ar    1  PHE1       -0.0003
     34 CZ         62.4086   82.1918   14.0210 C.ar    1  PHE1       -0.0000
     35 CE2        62.8916   83.6095   13.9389 C.ar    1  PHE1       -0.0003
     36 CD2        63.3428   84.1733   12.6241 C.ar    1  PHE1       -0.0042
@<TRIPOS>BOND
     1     8     9    1
     2     9    10    2
     3    10    11    1
     4    11    18    1
     5    18    19   ar
     6    19    20   ar
     7    20    21   ar
     8    21    22   ar
     9    22    23   ar
    10    11    12    2
    11    12    13    1
    12    13    14    2
    13    14    15    1
    14    15     1    1
    15     1     2    1
    16     2    24    1
    17    24    26    1
    18    26    27    1
    19    27    28    1
    20    26    30    1
    21    30    31    1
    22    31    32   ar
    23    32    33   ar
    24    33    34   ar
    25    34    35   ar
    26    35    36   ar
    27     2     3    2
    28     3     4    1
    29     4     5    2
    30     5     6    1
    31     6     7    2
    32    15    16    2
    33    16    17    1
    34    17     9    1
    35    23    18   ar
    36    17    13    1
    37     6     1    1
    38    36    31   ar
    39    24    25    1
    40    28    29    1
@<TRIPOS>MOLECULE
*****
 36 40 0 0 0
SMALL
GASTEIGER

@<TRIPOS>ATOM
      1 C          64.4359   90.5294   14.7681 C.3     0  UNK0        0.2246
      2 C          65.3954   91.4928   14.1347 C.2     0  UNK0        0.0436
      3 C          65.8146   92.7289   14.8740 C.2     0  UNK0        0.0288
      4 C          65.2743   93.0015   16.2465 C.2     0  UNK0        0.0896
      5 N          64.3148   92.0381   16.8798 N.am    0  UNK0       -0.1770
      6 C          63.8956   90.8020   16.1405 C.2     0  UNK0        0.2627
      7 O          62.9361   89.8386   16.7739 O.2     0  UNK0       -0.2719
      8 C          61.7874   88.0203   10.1017 C.3     0  UNK0        0.0312
      9 C          62.3979   87.1706   11.1765 C.2     0  UNK0        0.0124
     10 C          62.3401   85.6752   11.0737 C.2     0  UNK0       -0.0038
     11 C          62.9505   84.8255   12.1484 C.2     0  UNK0        0.0030
     12 C          63.6189   85.4710   13.3261 C.2     0  UNK0        0.0468
     13 C          63.6767   86.9663   13.4288 C.2     0  UNK0        0.2234
     14 N          64.2641   87.8793   14.4639 N.2     0  UNK0       -0.0378
     15 C          64.0166   89.2933   14.0289 C.2     0  UNK0        0.3605
     16 N          63.2763   89.2543   12.7249 N.2     0  UNK0       -0.0547
     17 C          63.0662   87.8161   12.3540 C.3     0  UNK0        0.2975
     18 C          62.8927   83.3300   12.0457 C.ar    0  UNK0        0.0001
     19 C          63.3262   82.6478   10.7821 C.ar    0  UNK0        0.0000
     20 C          63.2684   81.1524   10.6793 C.ar    0  UNK0        0.0000
     21 C          62.7771   80.3393   11.8401 C.ar    0  UNK0        0.0000
     22 C          62.3436   81.0216   13.1037 C.ar    0  UNK0        0.0000
     23 C          62.4014   82.5169   13.2065 C.ar    0  UNK0        0.0000
     24 N          65.9357   91.2202   12.7623 N.pl3   1  PHE1       -0.3342
     25 H          66.3618   90.3552   12.5638 H       1  PHE1        0.1466
     26 CA         65.8269   92.2656   11.6921 C.3     1  PHE1        0.1029
     27 C          64.5993   92.3343   10.8328 C.3     1  PHE1        0.1568
     28 O          63.7188   91.1290   10.6850 O.3     1  PHE1       -0.3802
     29 H          64.2037   90.4295   10.2196 H       1  PHE1        0.2105
     30 CB         66.9456   93.2423   11.4811 C.3     1  PHE1        0.0484
     31 CG         66.7566   94.4119   10.5613 C.ar    1  PHE1       -0.0204
     32 CD1        67.2851   94.3561    9.1586 C.ar    1  PHE1       -0.0042
     33 CE1        67.0961   95.5257    8.2387 C.ar    1  PHE1       -0.0003
     34 CZ         66.3786   96.7513    8.7216 C.ar    1  PHE1       -0.0000
     35 CE2        65.8502   96.8072   10.1243 C.ar    1  PHE1       -0.0003
     36 CD2        66.0392   95.6375   11.0441 C.ar    1  PHE1       -0.0042
@<TRIPOS>BOND
     1     8     9    1
     2     9    10    2
     3    10    11    1
     4    11    18    1
     5    18    19   ar
     6    19    20   ar
     7    20    21   ar
     8    21    22   ar
     9    22    23   ar
    10    11    12    2
    11    12    13    1
    12    13    14    2
    13    14    15    1
    14    15     1    1
    15     1     2    1
    16     2    24    1
    17    24    26    1
    18    26    27    1
    19    27    28    1
    20    26    30    1
    21    30    31    1
    22    31    32   ar
    23    32    33   ar
    24    33    34   ar
    25    34    35   ar
    26    35    36   ar
    27     2     3    2
    28     3     4    1
    29     4     5    2
    30     5     6    1
    31     6     7    2
    32    15    16    2
    33    16    17    1
    34    17     9    1
    35    23    18   ar
    36    17    13    1
    37     6     1    1
    38    36    31   ar
    39    24    25    1
    40    28    29    1
@<TRIPOS>MOLECULE
*****
 36 40 0 0 0
SMALL
GASTEIGER

@<TRIPOS>ATOM
      1 C          64.1433   90.3262   14.8647 C.3     0  UNK0        0.2246
      2 C          65.2220   91.3073   14.5128 C.2     0  UNK0        0.0436
      3 C          65.5877   92.3973   15.4762 C.2     0  UNK0        0.0288
      4 C          64.8748   92.5062   16.7915 C.2     0  UNK0        0.0896
      5 N          63.7961   91.5251   17.1434 N.am    0  UNK0       -0.1770
      6 C          63.4304   90.4351   16.1799 C.2     0  UNK0        0.2627
      7 O          62.3517   89.4540   16.5318 O.2     0  UNK0       -0.2719
      8 C          63.5988   84.5545   13.6497 C.3     0  UNK0        0.0312
      9 C          63.2483   85.5847   12.6172 C.2     0  UNK0        0.0124
     10 C          62.7563   85.1557   11.2667 C.2     0  UNK0       -0.0038
     11 C          62.4057   86.1858   10.2343 C.2     0  UNK0        0.0030
     12 C          62.5472   87.6449   10.5522 C.2     0  UNK0        0.0468
     13 C          63.0393   88.0738   11.9027 C.2     0  UNK0        0.2234
     14 N          63.2789   89.4288   12.4998 N.2     0  UNK0       -0.0378
     15 C          63.7775   89.2362   13.9013 C.2     0  UNK0        0.3605
     16 N          63.8461   87.7621   14.1704 N.2     0  UNK0       -0.0547
     17 C          63.3898   87.0437   12.9352 C.3     0  UNK0        0.2975
     18 C          61.9136   85.7568    8.8837 C.ar    0  UNK0        0.0001
     19 C          60.5059   86.0635    8.4661 C.ar    0  UNK0        0.0000
     20 C          60.0139   85.6345    7.1157 C.ar    0  UNK0        0.0000
     21 C          60.9295   84.8989    6.1827 C.ar    0  UNK0        0.0000
     22 C          62.3372   84.5922    6.6002 C.ar    0  UNK0        0.0000
     23 C          62.8293   85.0212    7.9507 C.ar    0  UNK0        0.0000
     24 N          65.9349   91.1984   13.1976 N.pl3   1  PHE1       -0.3342
     25 H          65.9971   90.3279   12.7419 H       1  PHE1        0.1466
     26 CA         66.5531   92.4158   12.5765 C.3     1  PHE1        0.1029
     27 C          68.0389   92.6139   12.6323 C.3     1  PHE1        0.1568
     28 O          68.9226   91.5188   13.1519 O.3     1  PHE1       -0.3802
     29 H          68.7421   91.3775   14.0945 H       1  PHE1        0.2105
     30 CB         65.6855   93.4352   11.8996 C.3     1  PHE1        0.0484
     31 CG         66.2755   94.3642   10.8804 C.ar    1  PHE1       -0.0204
     32 CD1        66.2770   95.8439   11.1262 C.ar    1  PHE1       -0.0042
     33 CE1        66.8670   96.7729   10.1071 C.ar    1  PHE1       -0.0003
     34 CZ         67.4557   96.2223    8.8420 C.ar    1  PHE1       -0.0000
     35 CE2        67.4542   94.7426    8.5962 C.ar    1  PHE1       -0.0003
     36 CD2        66.8642   93.8136    9.6154 C.ar    1  PHE1       -0.0042
@<TRIPOS>BOND
     1     8     9    1
     2     9    10    2
     3    10    11    1
     4    11    18    1
     5    18    19   ar
     6    19    20   ar
     7    20    21   ar
     8    21    22   ar
     9    22    23   ar
    10    11    12    2
    11    12    13    1
    12    13    14    2
    13    14    15    1
    14    15     1    1
    15     1     2    1
    16     2    24    1
    17    24    26    1
    18    26    27    1
    19    27    28    1
    20    26    30    1
    21    30    31    1
    22    31    32   ar
    23    32    33   ar
    24    33    34   ar
    25    34    35   ar
    26    35    36   ar
    27     2     3    2
    28     3     4    1
    29     4     5    2
    30     5     6    1
    31     6     7    2
    32    15    16    2
    33    16    17    1
    34    17     9    1
    35    23    18   ar
    36    17    13    1
    37     6     1    1
    38    36    31   ar
    39    24    25    1
    40    28    29    1
@<TRIPOS>MOLECULE
*****
 36 40 0 0 0
SMALL
GASTEIGER

@<TRIPOS>ATOM
      1 C          64.1154   90.0969   12.7457 C.3     0  UNK0        0.2246
      2 C          63.6167   90.5569   11.4079 C.2     0  UNK0        0.0436
      3 C          63.9019   91.9535   10.9408 C.2     0  UNK0        0.0288
      4 C          64.6858   92.8902   11.8115 C.2     0  UNK0        0.0896
      5 N          65.1846   92.4303   13.1493 N.am    0  UNK0       -0.1770
      6 C          64.8994   91.0336   13.6163 C.2     0  UNK0        0.2627
      7 O          65.3981   90.5737   14.9541 O.2     0  UNK0       -0.2719
      8 C          63.3643   86.2504   17.1869 C.3     0  UNK0        0.0312
      9 C          63.2544   85.7961   15.7615 C.2     0  UNK0        0.0124
     10 C          62.9526   84.3595   15.4534 C.2     0  UNK0       -0.0038
     11 C          62.8427   83.9052   14.0282 C.2     0  UNK0        0.0030
     12 C          63.0347   84.8875   12.9109 C.2     0  UNK0        0.0468
     13 C          63.3366   86.3241   13.2190 C.2     0  UNK0        0.2234
     14 N          63.5738   87.5119   12.3343 N.2     0  UNK0       -0.0378
     15 C          63.8303   88.7003   13.2128 C.2     0  UNK0        0.3605
     16 N          63.7516   88.2470   14.6405 N.2     0  UNK0       -0.0547
     17 C          63.4464   86.7784   14.6443 C.3     0  UNK0        0.2975
     18 C          62.5408   82.4684   13.7201 C.ar    0  UNK0        0.0001
     19 C          63.3020   81.7569   12.6410 C.ar    0  UNK0        0.0000
     20 C          63.0001   80.3202   12.3329 C.ar    0  UNK0        0.0000
     21 C          61.9372   79.5952   13.1038 C.ar    0  UNK0        0.0000
     22 C          61.1760   80.3067   14.1829 C.ar    0  UNK0        0.0000
     23 C          61.4779   81.7434   14.4910 C.ar    0  UNK0        0.0000
     24 N          62.8328   89.6203   10.5372 N.pl3   1  PHE1       -0.3342
     25 H          63.2915   89.0917    9.8447 H       1  PHE1        0.1466
     26 CA         61.3499   89.4889   10.7214 C.3     1  PHE1        0.1029
     27 C          60.5007   90.7166   10.8683 C.3     1  PHE1        0.1568
     28 O          59.3739   90.7351   11.8582 O.3     1  PHE1       -0.3802
     29 H          58.6940   90.0990   11.5861 H       1  PHE1        0.2105
     30 CB         60.7163   88.1298   10.7586 C.3     1  PHE1        0.0484
     31 CG         60.8817   87.1932    9.5988 C.ar    1  PHE1       -0.0204
     32 CD1        59.7522   86.9882    8.6333 C.ar    1  PHE1       -0.0042
     33 CE1        59.9176   86.0515    7.4734 C.ar    1  PHE1       -0.0003
     34 CZ         61.2126   85.3198    7.2790 C.ar    1  PHE1       -0.0000
     35 CE2        62.3420   85.5248    8.2445 C.ar    1  PHE1       -0.0003
     36 CD2        62.1766   86.4615    9.4043 C.ar    1  PHE1       -0.0042
@<TRIPOS>BOND
     1     8     9    1
     2     9    10    2
     3    10    11    1
     4    11    18    1
     5    18    19   ar
     6    19    20   ar
     7    20    21   ar
     8    21    22   ar
     9    22    23   ar
    10    11    12    2
    11    12    13    1
    12    13    14    2
    13    14    15    1
    14    15     1    1
    15     1     2    1
    16     2    24    1
    17    24    26    1
    18    26    27    1
    19    27    28    1
    20    26    30    1
    21    30    31    1
    22    31    32   ar
    23    32    33   ar
    24    33    34   ar
    25    34    35   ar
    26    35    36   ar
    27     2     3    2
    28     3     4    1
    29     4     5    2
    30     5     6    1
    31     6     7    2
    32    15    16    2
    33    16    17    1
    34    17     9    1
    35    23    18   ar
    36    17    13    1
    37     6     1    1
    38    36    31   ar
    39    24    25    1
    40    28    29    1
@<TRIPOS>MOLECULE
*****
 36 40 0 0 0
SMALL
GASTEIGER

@<TRIPOS>ATOM
      1 C          61.2594   88.5257   10.4585 C.3     0  UNK0        0.2246
      2 C          60.9179   87.0651   10.4699 C.2     0  UNK0        0.0436
      3 C          60.0160   86.4976    9.4141 C.2     0  UNK0        0.0288
      4 C          59.4557   87.3905    8.3471 C.2     0  UNK0        0.0896
      5 N          59.7972   88.8511    8.3357 N.am    0  UNK0       -0.1770
      6 C          60.6990   89.4186    9.3915 C.2     0  UNK0        0.2627
      7 O          61.0405   90.8792    9.3801 O.2     0  UNK0       -0.2719
      8 C          62.4991   89.4048   16.1835 C.3     0  UNK0        0.0312
      9 C          63.4145   89.9316   15.1183 C.2     0  UNK0        0.0124
     10 C          64.6532   90.6866   15.4999 C.2     0  UNK0       -0.0038
     11 C          65.5685   91.2133   14.4348 C.2     0  UNK0        0.0030
     12 C          65.2453   90.9851   12.9879 C.2     0  UNK0        0.0468
     13 C          64.0066   90.2302   12.6062 C.2     0  UNK0        0.2234
     14 N          63.4318   89.8531   11.2730 N.2     0  UNK0       -0.0378
     15 C          62.1612   89.0933   11.5143 C.2     0  UNK0        0.3605
     16 N          61.9507   89.0008   12.9965 N.2     0  UNK0       -0.0547
     17 C          63.0912   89.7034   13.6714 C.3     0  UNK0        0.2975
     18 C          66.8073   91.9683   14.8166 C.ar    0  UNK0        0.0001
     19 C          66.8021   92.8555   16.0261 C.ar    0  UNK0        0.0000
     20 C          68.0407   93.6105   16.4078 C.ar    0  UNK0        0.0000
     21 C          69.2846   93.4783   15.5800 C.ar    0  UNK0        0.0000
     22 C          69.2898   92.5911   14.3704 C.ar    0  UNK0        0.0000
     23 C          68.0512   91.8361   13.9887 C.ar    0  UNK0        0.0000
     24 N          61.4782   86.1722   11.5369 N.pl3   1  PHE1       -0.3342
     25 H          61.1901   86.2818   12.4719 H       1  PHE1        0.1466
     26 CA         62.4774   85.1121   11.1794 C.3     1  PHE1        0.1029
     27 C          62.8902   84.9220    9.7500 C.3     1  PHE1        0.1568
     28 O          63.8149   83.8006    9.3791 O.3     1  PHE1       -0.3802
     29 H          64.6848   83.9527    9.7804 H       1  PHE1        0.2105
     30 CB         63.0638   84.2421   12.2515 C.3     1  PHE1        0.0484
     31 CG         63.1950   84.7631   13.6519 C.ar    1  PHE1       -0.0204
     32 CD1        62.3469   84.1896   14.7481 C.ar    1  PHE1       -0.0042
     33 CE1        62.4781   84.7106   16.1486 C.ar    1  PHE1       -0.0003
     34 CZ         63.4575   85.8052   16.4529 C.ar    1  PHE1       -0.0000
     35 CE2        64.3056   86.3788   15.3567 C.ar    1  PHE1       -0.0003
     36 CD2        64.1744   85.8577   13.9562 C.ar    1  PHE1       -0.0042
@<TRIPOS>BOND
     1     8     9    1
     2     9    10    2
     3    10    11    1
     4    11    18    1
     5    18    19   ar
     6    19    20   ar
     7    20    21   ar
     8    21    22   ar
     9    22    23   ar
    10    11    12    2
    11    12    13    1
    12    13    14    2
    13    14    15    1
    14    15     1    1
    15     1     2    1
    16     2    24    1
    17    24    26    1
    18    26    27    1
    19    27    28    1
    20    26    30    1
    21    30    31    1
    22    31    32   ar
    23    32    33   ar
    24    33    34   ar
    25    34    35   ar
    26    35    36   ar
    27     2     3    2
    28     3     4    1
    29     4     5    2
    30     5     6    1
    31     6     7    2
    32    15    16    2
    33    16    17    1
    34    17     9    1
    35    23    18   ar
    36    17    13    1
    37     6     1    1
    38    36    31   ar
    39    24    25    1
    40    28    29    1
@<TRIPOS>MOLECULE
*****
 36 40 0 0 0
SMALL
GASTEIGER

@<TRIPOS>ATOM
      1 C          62.7144   88.5822   11.4834 C.3     0  UNK0        0.2246
      2 C          63.3302   89.5711   12.4283 C.2     0  UNK0        0.0436
      3 C          63.2181   91.0414   12.1530 C.2     0  UNK0        0.0288
      4 C          62.4903   91.5228   10.9329 C.2     0  UNK0        0.0896
      5 N          61.8746   90.5338    9.9880 N.am    0  UNK0       -0.1770
      6 C          61.9866   89.0635   10.2633 C.2     0  UNK0        0.2627
      7 O          61.3709   88.0746    9.3184 O.2     0  UNK0       -0.2719
      8 C          63.9422   84.1678   15.2371 C.3     0  UNK0        0.0312
      9 C          63.5191   83.8720   13.8287 C.2     0  UNK0        0.0124
     10 C          63.4045   82.4508   13.3629 C.2     0  UNK0       -0.0038
     11 C          62.9813   82.1549   11.9546 C.2     0  UNK0        0.0030
     12 C          62.6727   83.2803   11.0120 C.2     0  UNK0        0.0468
     13 C          62.7873   84.7015   11.4779 C.2     0  UNK0        0.2234
     14 N          62.5499   86.0084   10.7809 N.2     0  UNK0       -0.0378
     15 C          62.8264   87.1119   11.7586 C.2     0  UNK0        0.3605
     16 N          63.2347   86.4871   13.0597 N.2     0  UNK0       -0.0547
     17 C          63.2105   84.9973   12.8862 C.3     0  UNK0        0.2975
     18 C          62.8668   80.7336   11.4887 C.ar    0  UNK0        0.0001
     19 C          62.5958   79.6395   12.4784 C.ar    0  UNK0        0.0000
     20 C          62.4812   78.2183   12.0126 C.ar    0  UNK0        0.0000
     21 C          62.6376   77.8912   10.5571 C.ar    0  UNK0        0.0000
     22 C          62.9087   78.9853    9.5674 C.ar    0  UNK0        0.0000
     23 C          63.0232   80.4065   10.0332 C.ar    0  UNK0        0.0000
     24 N          64.0580   89.0899   13.6484 N.pl3   1  PHE1       -0.3342
     25 H          64.6653   88.3175   13.5866 H       1  PHE1        0.1466
     26 CA         63.8605   89.7854   14.9626 C.3     1  PHE1        0.1029
     27 C          63.3581   89.0178   16.1494 C.3     1  PHE1        0.1568
     28 O          63.3426   87.5182   16.1208 O.3     1  PHE1       -0.3802
     29 H          62.7102   87.2140   15.4512 H       1  PHE1        0.2105
     30 CB         64.1655   91.2485   15.0901 C.3     1  PHE1        0.0484
     31 CG         65.5875   91.7242   15.0525 C.ar    1  PHE1       -0.0204
     32 CD1        66.4423   91.4394   13.8533 C.ar    1  PHE1       -0.0042
     33 CE1        67.8644   91.9151   13.8158 C.ar    1  PHE1       -0.0003
     34 CZ         68.4317   92.6758   14.9775 C.ar    1  PHE1       -0.0000
     35 CE2        67.5769   92.9606   16.1767 C.ar    1  PHE1       -0.0003
     36 CD2        66.1548   92.4849   16.2143 C.ar    1  PHE1       -0.0042
@<TRIPOS>BOND
     1     8     9    1
     2     9    10    2
     3    10    11    1
     4    11    18    1
     5    18    19   ar
     6    19    20   ar
     7    20    21   ar
     8    21    22   ar
     9    22    23   ar
    10    11    12    2
    11    12    13    1
    12    13    14    2
    13    14    15    1
    14    15     1    1
    15     1     2    1
    16     2    24    1
    17    24    26    1
    18    26    27    1
    19    27    28    1
    20    26    30    1
    21    30    31    1
    22    31    32   ar
    23    32    33   ar
    24    33    34   ar
    25    34    35   ar
    26    35    36   ar
    27     2     3    2
    28     3     4    1
    29     4     5    2
    30     5     6    1
    31     6     7    2
    32    15    16    2
    33    16    17    1
    34    17     9    1
    35    23    18   ar
    36    17    13    1
    37     6     1    1
    38    36    31   ar
    39    24    25    1
    40    28    29    1
@<TRIPOS>MOLECULE
*****
 36 40 0 0 0
SMALL
GASTEIGER

@<TRIPOS>ATOM
      1 C          63.0015   86.5023   12.3980 C.3     0  UNK0        0.2246
      2 C          63.6081   87.5760   13.2519 C.2     0  UNK0        0.0436
      3 C          64.3411   87.2103   14.5085 C.2     0  UNK0        0.0288
      4 C          64.4675   85.7710   14.9113 C.2     0  UNK0        0.0896
      5 N          63.8609   84.6972   14.0574 N.am    0  UNK0       -0.1770
      6 C          63.1279   85.0629   12.8008 C.2     0  UNK0        0.2627
      7 O          62.5213   83.9891   11.9470 O.2     0  UNK0       -0.2719
      8 C          60.5822   84.8796    7.2407 C.3     0  UNK0        0.0312
      9 C          60.5440   86.3133    7.6801 C.2     0  UNK0        0.0124
     10 C          59.8901   87.3467    6.8115 C.2     0  UNK0       -0.0038
     11 C          59.8519   88.7804    7.2509 C.2     0  UNK0        0.0030
     12 C          60.4676   89.1807    8.5589 C.2     0  UNK0        0.0468
     13 C          61.1215   88.1472    9.4274 C.2     0  UNK0        0.2234
     14 N          61.8068   88.2426   10.7583 N.2     0  UNK0       -0.0378
     15 C          62.2685   86.8679   11.1414 C.2     0  UNK0        0.3605
     16 N          61.8686   85.9228   10.0474 N.2     0  UNK0       -0.0547
     17 C          61.1597   86.7135    8.9880 C.3     0  UNK0        0.2975
     18 C          59.1980   89.8139    6.3822 C.ar    0  UNK0        0.0001
     19 C          57.7031   89.8605    6.2679 C.ar    0  UNK0        0.0000
     20 C          57.0492   90.8939    5.3994 C.ar    0  UNK0        0.0000
     21 C          57.8902   91.8807    4.6451 C.ar    0  UNK0        0.0000
     22 C          59.3851   91.8341    4.7594 C.ar    0  UNK0        0.0000
     23 C          60.0390   90.8007    5.6280 C.ar    0  UNK0        0.0000
     24 N          63.4818   89.0154   12.8492 N.pl3   1  PHE1       -0.3342
     25 H          63.1299   89.2486   11.9598 H       1  PHE1        0.1466
     26 CA         63.8916   90.0994   13.8015 C.3     1  PHE1        0.1029
     27 C          63.4997   90.0156   15.2469 C.3     1  PHE1        0.1568
     28 O          62.0996   89.6306   15.6233 O.3     1  PHE1       -0.3802
     29 H          61.4843   90.3199   15.3280 H       1  PHE1        0.2105
     30 CB         64.6934   91.2673   13.3083 C.3     1  PHE1        0.0484
     31 CG         65.8829   91.7433   14.0883 C.ar    1  PHE1       -0.0204
     32 CD1        65.7073   92.2506   15.4889 C.ar    1  PHE1       -0.0042
     33 CE1        66.8968   92.7266   16.2689 C.ar    1  PHE1       -0.0003
     34 CZ         68.2621   92.6953   15.6483 C.ar    1  PHE1       -0.0000
     35 CE2        68.4377   92.1880   14.2477 C.ar    1  PHE1       -0.0003
     36 CD2        67.2481   91.7120   13.4677 C.ar    1  PHE1       -0.0042
@<TRIPOS>BOND
     1     8     9    1
     2     9    10    2
     3    10    11    1
     4    11    18    1
     5    18    19   ar
     6    19    20   ar
     7    20    21   ar
     8    21    22   ar
     9    22    23   ar
    10    11    12    2
    11    12    13    1
    12    13    14    2
    13    14    15    1
    14    15     1    1
    15     1     2    1
    16     2    24    1
    17    24    26    1
    18    26    27    1
    19    27    28    1
    20    26    30    1
    21    30    31    1
    22    31    32   ar
    23    32    33   ar
    24    33    34   ar
    25    34    35   ar
    26    35    36   ar
    27     2     3    2
    28     3     4    1
    29     4     5    2
    30     5     6    1
    31     6     7    2
    32    15    16    2
    33    16    17    1
    34    17     9    1
    35    23    18   ar
    36    17    13    1
    37     6     1    1
    38    36    31   ar
    39    24    25    1
    40    28    29    1
@<TRIPOS>MOLECULE
*****
 36 40 0 0 0
SMALL
GASTEIGER

@<TRIPOS>ATOM
      1 C          63.5017   88.7818   12.8839 C.3     0  UNK0        0.2246
      2 C          63.0006   89.4968   11.6642 C.2     0  UNK0        0.0436
      3 C          63.0742   90.9931   11.5888 C.2     0  UNK0        0.0288
      4 C          63.6489   91.7744   12.7331 C.2     0  UNK0        0.0896
      5 N          64.1500   91.0594   13.9528 N.am    0  UNK0       -0.1770
      6 C          64.0764   89.5631   14.0281 C.2     0  UNK0        0.2627
      7 O          64.5775   88.8481   15.2478 O.2     0  UNK0       -0.2719
      8 C          63.6594   83.8168   16.1101 C.3     0  UNK0        0.0312
      9 C          63.4552   83.7520   14.6255 C.2     0  UNK0        0.0124
     10 C          63.2894   82.4238   13.9485 C.2     0  UNK0       -0.0038
     11 C          63.0853   82.3589   12.4640 C.2     0  UNK0        0.0030
     12 C          63.0469   83.6223   11.6562 C.2     0  UNK0        0.0468
     13 C          63.2127   84.9506   12.3332 C.2     0  UNK0        0.2234
     14 N          63.2196   86.3536   11.8026 N.2     0  UNK0       -0.0378
     15 C          63.4281   87.2855   12.9593 C.2     0  UNK0        0.3605
     16 N          63.5500   86.4585   14.2048 N.2     0  UNK0       -0.0547
     17 C          63.4169   85.0154   13.8178 C.3     0  UNK0        0.2975
     18 C          62.9194   81.0306   11.7870 C.ar    0  UNK0        0.0001
     19 C          62.6025   79.8096   12.5986 C.ar    0  UNK0        0.0000
     20 C          62.4367   78.4813   11.9216 C.ar    0  UNK0        0.0000
     21 C          62.5878   78.3741   10.4331 C.ar    0  UNK0        0.0000
     22 C          62.9047   79.5952    9.6215 C.ar    0  UNK0        0.0000
     23 C          63.0705   80.9234   10.2985 C.ar    0  UNK0        0.0000
     24 N          62.4259   88.7156   10.5199 N.pl3   1  PHE1       -0.3342
     25 H          63.0213   88.2097    9.9210 H       1  PHE1        0.1466
     26 CA         60.9439   88.7052   10.2881 C.3     1  PHE1        0.1029
     27 C          60.1469   89.9624   10.4737 C.3     1  PHE1        0.1568
     28 O          59.4303   90.2119   11.7675 O.3     1  PHE1       -0.3802
     29 H          58.7253   89.5550   11.8786 H       1  PHE1        0.2105
     30 CB         60.2590   87.4377    9.8707 C.3     1  PHE1        0.0484
     31 CG         60.9064   86.5311    8.8662 C.ar    1  PHE1       -0.0204
     32 CD1        62.3533   86.1631    9.0109 C.ar    1  PHE1       -0.0042
     33 CE1        63.0007   85.2565    8.0064 C.ar    1  PHE1       -0.0003
     34 CZ         62.2011   84.7179    6.8572 C.ar    1  PHE1       -0.0000
     35 CE2        60.7542   85.0860    6.7126 C.ar    1  PHE1       -0.0003
     36 CD2        60.1068   85.9926    7.7170 C.ar    1  PHE1       -0.0042
@<TRIPOS>BOND
     1     8     9    1
     2     9    10    2
     3    10    11    1
     4    11    18    1
     5    18    19   ar
     6    19    20   ar
     7    20    21   ar
     8    21    22   ar
     9    22    23   ar
    10    11    12    2
    11    12    13    1
    12    13    14    2
    13    14    15    1
    14    15     1    1
    15     1     2    1
    16     2    24    1
    17    24    26    1
    18    26    27    1
    19    27    28    1
    20    26    30    1
    21    30    31    1
    22    31    32   ar
    23    32    33   ar
    24    33    34   ar
    25    34    35   ar
    26    35    36   ar
    27     2     3    2
    28     3     4    1
    29     4     5    2
    30     5     6    1
    31     6     7    2
    32    15    16    2
    33    16    17    1
    34    17     9    1
    35    23    18   ar
    36    17    13    1
    37     6     1    1
    38    36    31   ar
    39    24    25    1
    40    28    29    1
@<TRIPOS>MOLECULE
*****
 36 40 0 0 0
SMALL
GASTEIGER

@<TRIPOS>ATOM
      1 C          63.0929   84.3221   11.3426 C.3     0  UNK0        0.2246
      2 C          63.0616   84.0853   12.8234 C.2     0  UNK0        0.0436
      3 C          63.7563   82.8906   13.4067 C.2     0  UNK0        0.0288
      4 C          64.4821   81.9327   12.5092 C.2     0  UNK0        0.0896
      5 N          64.5134   82.1694   11.0283 N.am    0  UNK0       -0.1770
      6 C          63.8187   83.3642   10.4451 C.2     0  UNK0        0.2627
      7 O          63.8499   83.6009    8.9642 O.2     0  UNK0       -0.2719
      8 C          60.7229   89.7038   12.0534 C.3     0  UNK0        0.0312
      9 C          60.7254   89.0468   10.7049 C.2     0  UNK0        0.0124
     10 C          60.1250   89.7528    9.5255 C.2     0  UNK0       -0.0038
     11 C          60.1274   89.0959    8.1771 C.2     0  UNK0        0.0030
     12 C          60.7302   87.7327    8.0080 C.2     0  UNK0        0.0468
     13 C          61.3305   87.0266    9.1874 C.2     0  UNK0        0.2234
     14 N          61.9919   85.6874    9.3254 N.2     0  UNK0       -0.0378
     15 C          62.3982   85.5167   10.7592 C.2     0  UNK0        0.3605
     16 N          61.9880   86.7505   11.5073 N.2     0  UNK0       -0.0547
     17 C          61.3281   87.6836   10.5359 C.3     0  UNK0        0.2975
     18 C          59.5270   89.8020    6.9977 C.ar    0  UNK0        0.0001
     19 C          58.0442   89.7621    6.7747 C.ar    0  UNK0        0.0000
     20 C          57.4439   90.4682    5.5953 C.ar    0  UNK0        0.0000
     21 C          58.3263   91.2142    4.6389 C.ar    0  UNK0        0.0000
     22 C          59.8091   91.2541    4.8618 C.ar    0  UNK0        0.0000
     23 C          60.4095   90.5480    6.0412 C.ar    0  UNK0        0.0000
     24 N          62.3358   85.0431   13.7210 N.pl3   1  PHE1       -0.3342
     25 H          61.4553   85.3950   13.4561 H       1  PHE1        0.1466
     26 CA         62.9514   85.4648   15.0222 C.3     1  PHE1        0.1029
     27 C          62.3597   84.9964   16.3185 C.3     1  PHE1        0.1568
     28 O          61.5773   85.9489   17.1734 O.3     1  PHE1       -0.3802
     29 H          62.1667   86.6439   17.5057 H       1  PHE1        0.2105
     30 CB         64.1587   86.3550   15.0271 C.3     1  PHE1        0.0484
     31 CG         63.9916   87.8452   15.0615 C.ar    1  PHE1       -0.0204
     32 CD1        64.2934   88.6622   13.8403 C.ar    1  PHE1       -0.0042
     33 CE1        64.1263   90.1525   13.8747 C.ar    1  PHE1       -0.0003
     34 CZ         63.6574   90.8258   15.1305 C.ar    1  PHE1       -0.0000
     35 CE2        63.3557   90.0088   16.3517 C.ar    1  PHE1       -0.0003
     36 CD2        63.5228   88.5185   16.3172 C.ar    1  PHE1       -0.0042
@<TRIPOS>BOND
     1     8     9    1
     2     9    10    2
     3    10    11    1
     4    11    18    1
     5    18    19   ar
     6    19    20   ar
     7    20    21   ar
     8    21    22   ar
     9    22    23   ar
    10    11    12    2
    11    12    13    1
    12    13    14    2
    13    14    15    1
    14    15     1    1
    15     1     2    1
    16     2    24    1
    17    24    26    1
    18    26    27    1
    19    27    28    1
    20    26    30    1
    21    30    31    1
    22    31    32   ar
    23    32    33   ar
    24    33    34   ar
    25    34    35   ar
    26    35    36   ar
    27     2     3    2
    28     3     4    1
    29     4     5    2
    30     5     6    1
    31     6     7    2
    32    15    16    2
    33    16    17    1
    34    17     9    1
    35    23    18   ar
    36    17    13    1
    37     6     1    1
    38    36    31   ar
    39    24    25    1
    40    28    29    1
