@<TRIPOS>MOLECULE
*****
 41 46 0 0 0
SMALL
GASTEIGER

@<TRIPOS>ATOM
      1 C          64.0061   89.5675   15.7110 C.ar    1  UNL1        0.1667
      2 N          63.2955   88.7962   16.7834 N.ar    1  UNL1       -0.2239
      3 C          63.2046   87.3653   16.3426 C.ar    1  UNL1        0.0893
      4 C          62.6105   86.1508   16.9920 C.ar    1  UNL1        0.0202
      5 C          62.6708   84.8232   16.2965 C.ar    1  UNL1        0.0081
      6 C          63.3253   84.7101   14.9516 C.ar    1  UNL1        0.0329
      7 C          63.9194   85.9246   14.3021 C.ar    1  UNL1        0.0146
      8 C          63.8591   87.2522   14.9976 C.ar    1  UNL1        0.0502
      9 S          64.3544   88.6132   14.6073 S.2     1  UNL1       -0.0513
     10 O          66.0479   90.7057   13.8306 O.2     1  UNL1       -0.2524
     11 C          65.3351   91.6044   14.7974 C.2     1  UNL1        0.3059
     12 N          65.6433   93.0721   14.8240 N.am    1  UNL1       -0.2872
     13 N          64.3143   91.0352   15.7375 N.am    1  UNL1       -0.2485
     14 H          65.1756   93.6619   15.4585 H       1  UNL1        0.1510
     15 H          63.8465   91.6250   16.3720 H       1  UNL1        0.1583
     16 C          66.6642   93.6412   13.8838 C.3     1  UNL1        0.1082
     17 C          66.2262   94.2892   12.6038 C.3     1  UNL1        0.0938
     18 N          66.8888   93.9182   11.3103 N.3     1  UNL1       -0.2670
     19 C          67.3329   92.5051   11.0733 C.3     1  UNL1        0.1047
     20 C          67.9955   92.1341    9.7798 C.3     1  UNL1        0.1595
     21 O          68.2142   93.1761    8.7232 O.3     1  UNL1       -0.3508
     22 C          67.7702   94.5891    8.9601 C.3     1  UNL1        0.1595
     23 C          67.1075   94.9602   10.2537 C.3     1  UNL1        0.1047
     24 S          63.3856   83.3824   14.2561 S.3     1  UNL1       -0.0470
     25 C          63.7881   83.3092   12.8130 C.ar    1  UNL1        0.2172
     26 N          64.8836   82.4563   12.2453 N.ar    1  UNL1       -0.1200
     27 N          64.9383   82.6961   10.7656 N.ar    1  UNL1       -0.1264
     28 C          63.8765   83.6973   10.4188 C.ar    1  UNL1        0.1874
     29 C          63.4652   84.3129    9.1143 C.ar    1  UNL1        0.0455
     30 C          62.3430   85.3074    9.0750 C.ar    1  UNL1        0.0628
     31 C          61.6320   85.6864   10.3403 C.ar    1  UNL1        0.2469
     32 N          62.0434   85.0708   11.6449 N.ar    1  UNL1       -0.1238
     33 N          63.1657   84.0762   11.6841 N.ar    1  UNL1       -0.1830
     34 O          60.5099   86.6808   10.3011 O.3     1  UNL1       -0.4349
     35 C          60.7924   88.1392   10.5093 C.ar    1  UNL1        0.1495
     36 C          62.1665   88.6815   10.2490 C.ar    1  UNL1        0.0377
     37 C          62.4491   90.1398   10.4573 C.ar    1  UNL1        0.0054
     38 C          61.3577   91.0559   10.9257 C.ar    1  UNL1        0.0298
     39 C          59.9836   90.5136   11.1860 C.ar    1  UNL1        0.1432
     40 F          58.8921   91.4297   11.6545 F       1  UNL1       -0.2041
     41 C          59.7010   89.0553   10.9778 C.ar    1  UNL1        0.0672
@<TRIPOS>BOND
     1    10    11    2
     2    11    12   am
     3    12    16    1
     4    16    17    1
     5    17    18    1
     6    18    19    1
     7    19    20    1
     8    20    21    1
     9    21    22    1
    10    22    23    1
    11    11    13   am
    12    13     1    1
    13     1     2   ar
    14     2     3   ar
    15     3     4   ar
    16     4     5   ar
    17     5     6   ar
    18     6    24    1
    19    24    25    1
    20    25    26   ar
    21    26    27   ar
    22    27    28   ar
    23    28    29   ar
    24    29    30   ar
    25    30    31   ar
    26    31    34    1
    27    34    35    1
    28    35    36   ar
    29    36    37   ar
    30    37    38   ar
    31    38    39   ar
    32    39    40    1
    33    39    41   ar
    34    31    32   ar
    35    32    33   ar
    36     6     7   ar
    37     7     8   ar
    38     8     9   ar
    39    23    18    1
    40     9     1   ar
    41     8     3   ar
    42    33    25   ar
    43    33    28   ar
    44    41    35   ar
    45    12    14    1
    46    13    15    1
@<TRIPOS>MOLECULE
*****
 41 46 0 0 0
SMALL
GASTEIGER

@<TRIPOS>ATOM
      1 C          63.2245   85.2444   16.0159 C.ar    1  UNL1        0.1667
      2 N          62.5118   86.3048   16.8017 N.ar    1  UNL1       -0.2239
      3 C          63.0787   87.6357   16.4047 C.ar    1  UNL1        0.0893
      4 C          62.7642   89.0334   16.8490 C.ar    1  UNL1        0.0202
      5 C          63.5128   90.1931   16.2621 C.ar    1  UNL1        0.0081
      6 C          64.5758   89.9552   15.2309 C.ar    1  UNL1        0.0329
      7 C          64.8903   88.5574   14.7866 C.ar    1  UNL1        0.0146
      8 C          64.1417   87.3977   15.3735 C.ar    1  UNL1        0.0502
      9 S          64.2318   85.9198   15.1332 S.2     1  UNL1       -0.0513
     10 O          61.9771   83.8031   13.6992 O.2     1  UNL1       -0.2524
     11 C          62.3501   83.0471   14.9399 C.2     1  UNL1        0.3059
     12 N          62.0995   81.5705   15.0223 N.am    1  UNL1       -0.2872
     13 N          62.9738   83.7677   16.0982 N.am    1  UNL1       -0.2485
     14 H          62.3443   81.0743   15.8366 H       1  UNL1        0.1510
     15 H          63.2186   83.2716   16.9125 H       1  UNL1        0.1583
     16 C          61.4757   80.8499   13.8639 C.3     1  UNL1        0.1082
     17 C          62.3331   80.3658   12.7323 C.3     1  UNL1        0.0938
     18 N          63.2293   81.3251   12.0067 N.3     1  UNL1       -0.2670
     19 C          64.2793   82.0868   12.7601 C.3     1  UNL1        0.1047
     20 C          65.1755   83.0461   12.0346 C.3     1  UNL1        0.1595
     21 O          65.0218   83.2438   10.5557 O.3     1  UNL1       -0.3508
     22 C          63.9719   82.4822    9.8022 C.3     1  UNL1        0.1595
     23 C          63.0756   81.5228   10.5278 C.3     1  UNL1        0.1047
     24 S          65.3244   91.1150   14.6439 S.3     1  UNL1       -0.0470
     25 C          64.9818   91.6111   13.2705 C.ar    1  UNL1        0.2172
     26 N          65.5027   92.8635   12.6300 N.ar    1  UNL1       -0.1200
     27 N          64.9010   92.9683   11.2600 N.ar    1  UNL1       -0.1264
     28 C          64.0082   91.7807   11.0537 C.ar    1  UNL1        0.1874
     29 C          63.1562   91.3546    9.8951 C.ar    1  UNL1        0.0455
     30 C          62.3542   90.0899    9.9788 C.ar    1  UNL1        0.0628
     31 C          62.4042   89.2510   11.2214 C.ar    1  UNL1        0.2469
     32 N          63.2561   89.6771   12.3801 N.ar    1  UNL1       -0.1238
     33 N          64.0582   90.9419   12.2963 N.ar    1  UNL1       -0.1830
     34 O          61.6022   87.9863   11.3052 O.3     1  UNL1       -0.4349
     35 C          61.2337   87.2474   10.0529 C.ar    1  UNL1        0.1495
     36 C          59.8572   87.3914    9.4746 C.ar    1  UNL1        0.0377
     37 C          59.4888   86.6526    8.2223 C.ar    1  UNL1        0.0054
     38 C          60.4967   85.7696    7.5483 C.ar    1  UNL1        0.0298
     39 C          61.8733   85.6256    8.1266 C.ar    1  UNL1        0.1432
     40 F          62.8813   84.7427    7.4526 F       1  UNL1       -0.2041
     41 C          62.2418   86.3645    9.3789 C.ar    1  UNL1        0.0672
@<TRIPOS>BOND
     1    10    11    2
     2    11    12   am
     3    12    16    1
     4    16    17    1
     5    17    18    1
     6    18    19    1
     7    19    20    1
     8    20    21    1
     9    21    22    1
    10    22    23    1
    11    11    13   am
    12    13     1    1
    13     1     2   ar
    14     2     3   ar
    15     3     4   ar
    16     4     5   ar
    17     5     6   ar
    18     6    24    1
    19    24    25    1
    20    25    26   ar
    21    26    27   ar
    22    27    28   ar
    23    28    29   ar
    24    29    30   ar
    25    30    31   ar
    26    31    34    1
    27    34    35    1
    28    35    36   ar
    29    36    37   ar
    30    37    38   ar
    31    38    39   ar
    32    39    40    1
    33    39    41   ar
    34    31    32   ar
    35    32    33   ar
    36     6     7   ar
    37     7     8   ar
    38     8     9   ar
    39    23    18    1
    40     9     1   ar
    41     8     3   ar
    42    33    25   ar
    43    33    28   ar
    44    41    35   ar
    45    12    14    1
    46    13    15    1
@<TRIPOS>MOLECULE
*****
 41 46 0 0 0
SMALL
GASTEIGER

@<TRIPOS>ATOM
      1 C          60.8820   86.1178    8.8205 C.ar    1  UNL1        0.1667
      2 N          61.9441   85.1298    8.4386 N.ar    1  UNL1       -0.2239
      3 C          62.6930   84.7505    9.6816 C.ar    1  UNL1        0.0893
      4 C          63.8431   83.8163    9.9147 C.ar    1  UNL1        0.0202
      5 C          64.3940   83.6356   11.2981 C.ar    1  UNL1        0.0081
      6 C          63.7948   84.3891   12.4484 C.ar    1  UNL1        0.0329
      7 C          62.6447   85.3233   12.2153 C.ar    1  UNL1        0.0146
      8 C          62.0938   85.5040   10.8319 C.ar    1  UNL1        0.0502
      9 S          60.9745   86.3490   10.2997 S.2     1  UNL1       -0.0513
     10 O          60.7981   89.1052    8.5585 O.2     1  UNL1       -0.2524
     11 C          59.8579   88.2551    7.7562 C.2     1  UNL1        0.3059
     12 N          58.8758   88.8988    6.8229 N.am    1  UNL1       -0.2872
     13 N          59.8999   86.7615    7.8872 N.am    1  UNL1       -0.2485
     14 H          58.2587   88.3410    6.2963 H       1  UNL1        0.1510
     15 H          59.2828   86.2036    7.3607 H       1  UNL1        0.1583
     16 C          58.8338   90.3926    6.6919 C.3     1  UNL1        0.1082
     17 C          58.5042   91.0205    5.3701 C.3     1  UNL1        0.0938
     18 N          59.6031   91.5447    4.4940 N.3     1  UNL1       -0.2670
     19 C          60.9954   91.0039    4.6326 C.3     1  UNL1        0.1047
     20 C          62.0943   91.5281    3.7565 C.3     1  UNL1        0.1595
     21 O          61.8010   92.5931    2.7417 O.3     1  UNL1       -0.3508
     22 C          60.4088   93.1339    2.6031 C.3     1  UNL1        0.1595
     23 C          59.3098   92.6097    3.4792 C.3     1  UNL1        0.1047
     24 S          64.3458   84.2083   13.8319 S.3     1  UNL1       -0.0470
     25 C          63.6641   84.8551   15.0010 C.ar    1  UNL1        0.2172
     26 N          62.8522   84.1517   16.0480 N.ar    1  UNL1       -0.1200
     27 N          62.3610   85.1807   17.0226 N.ar    1  UNL1       -0.1264
     28 C          62.8694   86.5201   16.5779 C.ar    1  UNL1        0.1874
     29 C          62.7029   87.8970   17.1493 C.ar    1  UNL1        0.0455
     30 C          63.3418   89.0726   16.4714 C.ar    1  UNL1        0.0628
     31 C          64.1472   88.8714   15.2220 C.ar    1  UNL1        0.2469
     32 N          64.3136   87.4946   14.6506 N.ar    1  UNL1       -0.1238
     33 N          63.6747   86.3188   15.3286 N.ar    1  UNL1       -0.1830
     34 O          64.7861   90.0470   14.5440 O.3     1  UNL1       -0.4349
     35 C          64.3229   90.4700   13.1815 C.ar    1  UNL1        0.1495
     36 C          63.2232   89.7150   12.4954 C.ar    1  UNL1        0.0377
     37 C          62.7600   90.1380   11.1328 C.ar    1  UNL1        0.0054
     38 C          63.3963   91.3158   10.4564 C.ar    1  UNL1        0.0298
     39 C          64.4960   92.0708   11.1425 C.ar    1  UNL1        0.1432
     40 F          65.1324   93.2487   10.4661 F       1  UNL1       -0.2041
     41 C          64.9593   91.6479   12.5050 C.ar    1  UNL1        0.0672
@<TRIPOS>BOND
     1    10    11    2
     2    11    12   am
     3    12    16    1
     4    16    17    1
     5    17    18    1
     6    18    19    1
     7    19    20    1
     8    20    21    1
     9    21    22    1
    10    22    23    1
    11    11    13   am
    12    13     1    1
    13     1     2   ar
    14     2     3   ar
    15     3     4   ar
    16     4     5   ar
    17     5     6   ar
    18     6    24    1
    19    24    25    1
    20    25    26   ar
    21    26    27   ar
    22    27    28   ar
    23    28    29   ar
    24    29    30   ar
    25    30    31   ar
    26    31    34    1
    27    34    35    1
    28    35    36   ar
    29    36    37   ar
    30    37    38   ar
    31    38    39   ar
    32    39    40    1
    33    39    41   ar
    34    31    32   ar
    35    32    33   ar
    36     6     7   ar
    37     7     8   ar
    38     8     9   ar
    39    23    18    1
    40     9     1   ar
    41     8     3   ar
    42    33    25   ar
    43    33    28   ar
    44    41    35   ar
    45    12    14    1
    46    13    15    1
@<TRIPOS>MOLECULE
*****
 41 46 0 0 0
SMALL
GASTEIGER

@<TRIPOS>ATOM
      1 C          59.5811   87.7147    7.7092 C.ar    1  UNL1        0.1667
      2 N          60.2323   86.6588    6.8659 N.ar    1  UNL1       -0.2239
      3 C          61.2119   85.9172    7.7264 C.ar    1  UNL1        0.0893
      4 C          62.1397   84.7751    7.4355 C.ar    1  UNL1        0.0202
      5 C          63.0217   84.2304    8.5196 C.ar    1  UNL1        0.0081
      6 C          62.9759   84.8280    9.8947 C.ar    1  UNL1        0.0329
      7 C          62.0481   85.9701   10.1856 C.ar    1  UNL1        0.0146
      8 C          61.1661   86.5147    9.1015 C.ar    1  UNL1        0.0502
      9 S          60.1582   87.6256    9.0908 S.2     1  UNL1       -0.0513
     10 O          60.2443   89.7467    5.6041 O.2     1  UNL1       -0.2524
     11 C          58.8678   89.7045    6.1987 C.2     1  UNL1        0.3059
     12 N          57.8229   90.6784    5.7407 N.am    1  UNL1       -0.2872
     13 N          58.5362   88.6886    7.2512 N.am    1  UNL1       -0.2485
     14 H          56.9195   90.6508    6.1310 H       1  UNL1        0.1510
     15 H          57.6328   88.6609    7.6414 H       1  UNL1        0.1583
     16 C          58.1546   91.6945    4.6882 C.3     1  UNL1        0.1082
     17 C          59.5101   92.3363    4.6660 C.3     1  UNL1        0.0938
     18 N          60.2628   92.4548    3.3740 N.3     1  UNL1       -0.2670
     19 C          59.5571   92.9199    2.1347 C.3     1  UNL1        0.1047
     20 C          60.3097   93.0384    0.8427 C.3     1  UNL1        0.1595
     21 O          61.7682   92.6918    0.7898 O.3     1  UNL1       -0.3508
     22 C          62.4739   92.2266    2.0290 C.3     1  UNL1        0.1595
     23 C          61.7213   92.1081    3.3211 C.3     1  UNL1        0.1047
     24 S          63.8579   84.2832   10.9789 S.3     1  UNL1       -0.0470
     25 C          63.2818   83.9702   12.3280 C.ar    1  UNL1        0.2172
     26 N          62.5445   82.7189   12.7031 N.ar    1  UNL1       -0.1200
     27 N          62.1489   82.8289   14.1458 N.ar    1  UNL1       -0.1264
     28 C          62.6417   84.1481   14.6623 C.ar    1  UNL1        0.1874
     29 C          62.5434   84.7983   16.0105 C.ar    1  UNL1        0.0455
     30 C          63.1452   86.1537   16.2353 C.ar    1  UNL1        0.0628
     31 C          63.8454   86.8591   15.1118 C.ar    1  UNL1        0.2469
     32 N          63.9437   86.2090   13.7636 N.ar    1  UNL1       -0.1238
     33 N          63.3419   84.8535   13.5388 N.ar    1  UNL1       -0.1830
     34 O          64.4472   88.2145   15.3366 O.3     1  UNL1       -0.4349
     35 C          64.3415   89.2677   14.2737 C.ar    1  UNL1        0.1495
     36 C          65.1513   90.5257   14.3813 C.ar    1  UNL1        0.0377
     37 C          65.0456   91.5788   13.3184 C.ar    1  UNL1        0.0054
     38 C          64.1301   91.3741   12.1480 C.ar    1  UNL1        0.0298
     39 C          63.3202   90.1161   12.0404 C.ar    1  UNL1        0.1432
     40 F          62.4047   89.9113   10.8701 F       1  UNL1       -0.2041
     41 C          63.4259   89.0629   13.1033 C.ar    1  UNL1        0.0672
@<TRIPOS>BOND
     1    10    11    2
     2    11    12   am
     3    12    16    1
     4    16    17    1
     5    17    18    1
     6    18    19    1
     7    19    20    1
     8    20    21    1
     9    21    22    1
    10    22    23    1
    11    11    13   am
    12    13     1    1
    13     1     2   ar
    14     2     3   ar
    15     3     4   ar
    16     4     5   ar
    17     5     6   ar
    18     6    24    1
    19    24    25    1
    20    25    26   ar
    21    26    27   ar
    22    27    28   ar
    23    28    29   ar
    24    29    30   ar
    25    30    31   ar
    26    31    34    1
    27    34    35    1
    28    35    36   ar
    29    36    37   ar
    30    37    38   ar
    31    38    39   ar
    32    39    40    1
    33    39    41   ar
    34    31    32   ar
    35    32    33   ar
    36     6     7   ar
    37     7     8   ar
    38     8     9   ar
    39    23    18    1
    40     9     1   ar
    41     8     3   ar
    42    33    25   ar
    43    33    28   ar
    44    41    35   ar
    45    12    14    1
    46    13    15    1
@<TRIPOS>MOLECULE
*****
 41 46 0 0 0
SMALL
GASTEIGER

@<TRIPOS>ATOM
      1 C          59.3536   88.6199    7.6719 C.ar    1  UNL1        0.1667
      2 N          59.9338   89.0892    8.9731 N.ar    1  UNL1       -0.2239
      3 C          60.8390   88.0118    9.4925 C.ar    1  UNL1        0.0893
      4 C          61.6794   87.9178   10.7314 C.ar    1  UNL1        0.0202
      5 C          62.4992   86.6885   10.9900 C.ar    1  UNL1        0.0081
      6 C          62.4784   85.5533   10.0098 C.ar    1  UNL1        0.0329
      7 C          61.6380   85.6473    8.7709 C.ar    1  UNL1        0.0146
      8 C          60.8183   86.8766    8.5123 C.ar    1  UNL1        0.0502
      9 S          59.9002   87.2524    7.3872 S.2     1  UNL1       -0.0513
     10 O          60.3932   90.4456    5.5304 O.2     1  UNL1       -0.2524
     11 C          58.9148   90.2968    5.7366 C.2     1  UNL1        0.3059
     12 N          57.9563   91.0608    4.8720 N.am    1  UNL1       -0.2872
     13 N          58.3951   89.3839    6.8073 N.am    1  UNL1       -0.2485
     14 H          56.9861   90.9631    5.0073 H       1  UNL1        0.1510
     15 H          57.4248   89.2862    6.9427 H       1  UNL1        0.1583
     16 C          58.4761   91.9737    3.8012 C.3     1  UNL1        0.1082
     17 C          59.7639   92.7146    4.0074 C.3     1  UNL1        0.0938
     18 N          60.6567   93.0068    2.8380 N.3     1  UNL1       -0.2670
     19 C          62.0164   92.3786    2.7571 C.3     1  UNL1        0.1047
     20 C          62.9092   92.6708    1.5876 C.3     1  UNL1        0.1595
     21 O          62.4422   93.5911    0.4991 O.3     1  UNL1       -0.3508
     22 C          61.0826   94.2194    0.5800 C.3     1  UNL1        0.1595
     23 C          60.1897   93.9272    1.7495 C.3     1  UNL1        0.1047
     24 S          63.2982   84.3240   10.2685 S.3     1  UNL1       -0.0470
     25 C          62.9599   83.4258   11.4212 C.ar    1  UNL1        0.2172
     26 N          62.3148   82.0749   11.3266 N.ar    1  UNL1       -0.1200
     27 N          62.1635   81.5350   12.7178 N.ar    1  UNL1       -0.1264
     28 C          62.7152   82.5522   13.6723 C.ar    1  UNL1        0.1874
     29 C          62.8330   82.5654   15.1676 C.ar    1  UNL1        0.0455
     30 C          63.4428   83.7471   15.8616 C.ar    1  UNL1        0.0628
     31 C          63.9350   84.9157   15.0602 C.ar    1  UNL1        0.2469
     32 N          63.8173   84.9025   13.5649 N.ar    1  UNL1       -0.1238
     33 N          63.2074   83.7208   12.8709 N.ar    1  UNL1       -0.1830
     34 O          64.5449   86.0974   15.7541 O.3     1  UNL1       -0.4349
     35 C          64.0731   87.4837   15.4292 C.ar    1  UNL1        0.1495
     36 C          63.4174   88.3200   16.4878 C.ar    1  UNL1        0.0377
     37 C          62.9455   89.7063   16.1629 C.ar    1  UNL1        0.0054
     38 C          63.1294   90.2563   14.7797 C.ar    1  UNL1        0.0298
     39 C          63.7852   89.4200   13.7210 C.ar    1  UNL1        0.1432
     40 F          63.9691   89.9700   12.3378 F       1  UNL1       -0.2041
     41 C          64.2570   88.0337   14.0459 C.ar    1  UNL1        0.0672
@<TRIPOS>BOND
     1    10    11    2
     2    11    12   am
     3    12    16    1
     4    16    17    1
     5    17    18    1
     6    18    19    1
     7    19    20    1
     8    20    21    1
     9    21    22    1
    10    22    23    1
    11    11    13   am
    12    13     1    1
    13     1     2   ar
    14     2     3   ar
    15     3     4   ar
    16     4     5   ar
    17     5     6   ar
    18     6    24    1
    19    24    25    1
    20    25    26   ar
    21    26    27   ar
    22    27    28   ar
    23    28    29   ar
    24    29    30   ar
    25    30    31   ar
    26    31    34    1
    27    34    35    1
    28    35    36   ar
    29    36    37   ar
    30    37    38   ar
    31    38    39   ar
    32    39    40    1
    33    39    41   ar
    34    31    32   ar
    35    32    33   ar
    36     6     7   ar
    37     7     8   ar
    38     8     9   ar
    39    23    18    1
    40     9     1   ar
    41     8     3   ar
    42    33    25   ar
    43    33    28   ar
    44    41    35   ar
    45    12    14    1
    46    13    15    1
@<TRIPOS>MOLECULE
*****
 41 46 0 0 0
SMALL
GASTEIGER

@<TRIPOS>ATOM
      1 C          59.7194   88.8388    8.1634 C.ar    1  UNL1        0.1667
      2 N          60.1534   87.4897    8.6549 N.ar    1  UNL1       -0.2239
      3 C          61.1370   87.6963    9.7684 C.ar    1  UNL1        0.0893
      4 C          61.8967   86.7304   10.6285 C.ar    1  UNL1        0.0202
      5 C          62.8304   87.2414   11.6854 C.ar    1  UNL1        0.0081
      6 C          63.0043   88.7182   11.8822 C.ar    1  UNL1        0.0329
      7 C          62.2446   89.6841   11.0220 C.ar    1  UNL1        0.0146
      8 C          61.3109   89.1731    9.9651 C.ar    1  UNL1        0.0502
      9 S          60.4348   89.8792    8.9732 S.2     1  UNL1       -0.0513
     10 O          60.1856   91.1080    6.2573 O.2     1  UNL1       -0.2524
     11 C          58.9748   90.2360    6.1035 C.2     1  UNL1        0.3059
     12 N          57.9971   90.4986    4.9967 N.am    1  UNL1       -0.2872
     13 N          58.7417   89.1014    7.0566 N.am    1  UNL1       -0.2485
     14 H          57.2024   89.9263    4.8957 H       1  UNL1        0.1510
     15 H          57.9470   88.5291    6.9557 H       1  UNL1        0.1583
     16 C          58.2302   91.6333    4.0436 C.3     1  UNL1        0.1082
     17 C          59.5313   92.3792    4.0695 C.3     1  UNL1        0.0938
     18 N          60.2636   92.6545    2.7897 N.3     1  UNL1       -0.2670
     19 C          61.7552   92.5063    2.7321 C.3     1  UNL1        0.1047
     20 C          62.4874   92.7816    1.4523 C.3     1  UNL1        0.1595
     21 O          61.7282   93.2052    0.2300 O.3     1  UNL1       -0.3508
     22 C          60.2367   93.3535    0.2875 C.3     1  UNL1        0.1595
     23 C          59.5043   93.0782    1.5673 C.3     1  UNL1        0.1047
     24 S          63.9380   89.2292   12.9392 S.3     1  UNL1       -0.0470
     25 C          63.5361   89.1779   14.3834 C.ar    1  UNL1        0.2172
     26 N          63.0980   90.3443   15.2187 N.ar    1  UNL1       -0.1200
     27 N          62.7929   89.8385   16.5974 N.ar    1  UNL1       -0.1264
     28 C          63.0424   88.3594   16.6143 C.ar    1  UNL1        0.1874
     29 C          62.9107   87.3316   17.6988 C.ar    1  UNL1        0.0455
     30 C          63.2383   85.8956   17.4151 C.ar    1  UNL1        0.0628
     31 C          63.6977   85.4873   16.0467 C.ar    1  UNL1        0.2469
     32 N          63.8294   86.5151   14.9622 N.ar    1  UNL1       -0.1238
     33 N          63.5018   87.9512   15.2459 N.ar    1  UNL1       -0.1830
     34 O          64.0253   84.0514   15.7630 O.3     1  UNL1       -0.4349
     35 C          63.6280   83.4360   14.4540 C.ar    1  UNL1        0.1495
     36 C          62.4432   82.5186   14.3855 C.ar    1  UNL1        0.0377
     37 C          62.0460   81.9032   13.0765 C.ar    1  UNL1        0.0054
     38 C          62.8334   82.2051   11.8361 C.ar    1  UNL1        0.0298
     39 C          64.0183   83.1225   11.9045 C.ar    1  UNL1        0.1432
     40 F          64.8057   83.4244   10.6642 F       1  UNL1       -0.2041
     41 C          64.4155   83.7379   13.2135 C.ar    1  UNL1        0.0672
@<TRIPOS>BOND
     1    10    11    2
     2    11    12   am
     3    12    16    1
     4    16    17    1
     5    17    18    1
     6    18    19    1
     7    19    20    1
     8    20    21    1
     9    21    22    1
    10    22    23    1
    11    11    13   am
    12    13     1    1
    13     1     2   ar
    14     2     3   ar
    15     3     4   ar
    16     4     5   ar
    17     5     6   ar
    18     6    24    1
    19    24    25    1
    20    25    26   ar
    21    26    27   ar
    22    27    28   ar
    23    28    29   ar
    24    29    30   ar
    25    30    31   ar
    26    31    34    1
    27    34    35    1
    28    35    36   ar
    29    36    37   ar
    30    37    38   ar
    31    38    39   ar
    32    39    40    1
    33    39    41   ar
    34    31    32   ar
    35    32    33   ar
    36     6     7   ar
    37     7     8   ar
    38     8     9   ar
    39    23    18    1
    40     9     1   ar
    41     8     3   ar
    42    33    25   ar
    43    33    28   ar
    44    41    35   ar
    45    12    14    1
    46    13    15    1
@<TRIPOS>MOLECULE
*****
 41 46 0 0 0
SMALL
GASTEIGER

@<TRIPOS>ATOM
      1 C          62.7323   92.2358    2.5009 C.ar    1  UNL1        0.1667
      2 N          61.3613   92.8377    2.4106 N.ar    1  UNL1       -0.2239
      3 C          60.5049   92.2007    3.4645 C.ar    1  UNL1        0.0893
      4 C          59.0675   92.3986    3.8446 C.ar    1  UNL1        0.0202
      5 C          58.4717   91.6008    4.9665 C.ar    1  UNL1        0.0081
      6 C          59.3134   90.6051    5.7082 C.ar    1  UNL1        0.0329
      7 C          60.7509   90.4072    5.3281 C.ar    1  UNL1        0.0146
      8 C          61.3466   91.2050    4.2063 C.ar    1  UNL1        0.0502
      9 S          62.7232   91.2267    3.6107 S.2     1  UNL1       -0.0513
     10 O          63.0575   95.0317    1.4631 O.2     1  UNL1       -0.2524
     11 C          64.0688   93.9800    1.1149 C.2     1  UNL1        0.3059
     12 N          65.2427   94.3263    0.2477 N.am    1  UNL1       -0.2872
     13 N          63.9062   92.5821    1.6338 N.am    1  UNL1       -0.2485
     14 H          65.9065   93.6361    0.0191 H       1  UNL1        0.1510
     15 H          64.5700   91.8919    1.4052 H       1  UNL1        0.1583
     16 C          65.4053   95.7244   -0.2712 C.3     1  UNL1        0.1082
     17 C          65.0559   96.0412   -1.6951 C.3     1  UNL1        0.0938
     18 N          63.9466   95.2978   -2.3784 N.3     1  UNL1       -0.2670
     19 C          62.5207   95.5548   -1.9897 C.3     1  UNL1        0.1047
     20 C          61.4115   94.8114   -2.6730 C.3     1  UNL1        0.1595
     21 O          61.7280   93.8111   -3.7450 O.3     1  UNL1       -0.3508
     22 C          63.1537   93.5541   -4.1337 C.3     1  UNL1        0.1595
     23 C          64.2631   94.2975   -3.4504 C.3     1  UNL1        0.1047
     24 S          58.7176   89.8074    6.8301 S.3     1  UNL1       -0.0470
     25 C          59.4292   88.5922    7.3467 C.ar    1  UNL1        0.2172
     26 N          59.4634   87.2444    6.6892 N.ar    1  UNL1       -0.1200
     27 N          60.2869   86.3306    7.5477 N.ar    1  UNL1       -0.1264
     28 C          60.7615   87.1138    8.7358 C.ar    1  UNL1        0.1874
     29 C          61.6080   86.7347    9.9147 C.ar    1  UNL1        0.0455
     30 C          61.9244   87.7532   10.9694 C.ar    1  UNL1        0.0628
     31 C          61.3943   89.1510   10.8452 C.ar    1  UNL1        0.2469
     32 N          60.5478   89.5300    9.6663 N.ar    1  UNL1       -0.1238
     33 N          60.2314   88.5114    8.6116 N.ar    1  UNL1       -0.1830
     34 O          61.7106   90.1695   11.8998 O.3     1  UNL1       -0.4349
     35 C          63.0260   90.8899   11.8762 C.ar    1  UNL1        0.1495
     36 C          63.5253   91.4979   10.5991 C.ar    1  UNL1        0.0377
     37 C          64.8408   92.2183   10.5755 C.ar    1  UNL1        0.0054
     38 C          65.6570   92.3308   11.8289 C.ar    1  UNL1        0.0298
     39 C          65.1577   91.7228   13.1061 C.ar    1  UNL1        0.1432
     40 F          65.9738   91.8352   14.3595 F       1  UNL1       -0.2041
     41 C          63.8423   91.0024   13.1297 C.ar    1  UNL1        0.0672
@<TRIPOS>BOND
     1    10    11    2
     2    11    12   am
     3    12    16    1
     4    16    17    1
     5    17    18    1
     6    18    19    1
     7    19    20    1
     8    20    21    1
     9    21    22    1
    10    22    23    1
    11    11    13   am
    12    13     1    1
    13     1     2   ar
    14     2     3   ar
    15     3     4   ar
    16     4     5   ar
    17     5     6   ar
    18     6    24    1
    19    24    25    1
    20    25    26   ar
    21    26    27   ar
    22    27    28   ar
    23    28    29   ar
    24    29    30   ar
    25    30    31   ar
    26    31    34    1
    27    34    35    1
    28    35    36   ar
    29    36    37   ar
    30    37    38   ar
    31    38    39   ar
    32    39    40    1
    33    39    41   ar
    34    31    32   ar
    35    32    33   ar
    36     6     7   ar
    37     7     8   ar
    38     8     9   ar
    39    23    18    1
    40     9     1   ar
    41     8     3   ar
    42    33    25   ar
    43    33    28   ar
    44    41    35   ar
    45    12    14    1
    46    13    15    1
@<TRIPOS>MOLECULE
*****
 41 46 0 0 0
SMALL
GASTEIGER

@<TRIPOS>ATOM
      1 C          59.2121   89.2353    7.0887 C.ar    1  UNL1        0.1667
      2 N          59.4004   89.6911    8.5053 N.ar    1  UNL1       -0.2239
      3 C          60.1156   88.6037    9.2510 C.ar    1  UNL1        0.0893
      4 C          60.5685   88.4949   10.6768 C.ar    1  UNL1        0.0202
      5 C          61.2752   87.2582   11.1469 C.ar    1  UNL1        0.0081
      6 C          61.5289   86.1302   10.1912 C.ar    1  UNL1        0.0329
      7 C          61.0759   86.2390    8.7654 C.ar    1  UNL1        0.0146
      8 C          60.3693   87.4758    8.2953 C.ar    1  UNL1        0.0502
      9 S          59.8109   87.8661    6.9589 S.2     1  UNL1       -0.0513
     10 O          60.7898   91.2041    5.4655 O.2     1  UNL1       -0.2524
     11 C          59.3314   90.9966    5.1825 C.2     1  UNL1        0.3059
     12 N          58.6619   91.7735    4.0879 N.am    1  UNL1       -0.2872
     13 N          58.5426   90.0122    5.9941 N.am    1  UNL1       -0.2485
     14 H          57.7047   91.6373    3.9021 H       1  UNL1        0.1510
     15 H          57.5854   89.8760    5.8083 H       1  UNL1        0.1583
     16 C          59.4508   92.7579    3.2763 C.3     1  UNL1        0.1082
     17 C          59.8247   92.4336    1.8603 C.3     1  UNL1        0.0938
     18 N          61.1996   92.7565    1.3549 N.3     1  UNL1       -0.2670
     19 C          62.3930   92.5409    2.2378 C.3     1  UNL1        0.1047
     20 C          63.7679   92.8638    1.7324 C.3     1  UNL1        0.1595
     21 O          63.9494   93.4023    0.3442 O.3     1  UNL1       -0.3508
     22 C          62.7561   93.6179   -0.5386 C.3     1  UNL1        0.1595
     23 C          61.3811   93.2950   -0.0333 C.3     1  UNL1        0.1047
     24 S          62.2356   84.8934   10.6613 S.3     1  UNL1       -0.0470
     25 C          62.7706   84.8215   12.0608 C.ar    1  UNL1        0.2172
     26 N          62.8977   83.5802   12.8934 N.ar    1  UNL1       -0.1200
     27 N          63.4781   83.9698   14.2206 N.ar    1  UNL1       -0.1264
     28 C          63.7097   85.4518   14.2082 C.ar    1  UNL1        0.1874
     29 C          64.2623   86.3900   15.2399 C.ar    1  UNL1        0.0455
     30 C          64.3776   87.8544   14.9369 C.ar    1  UNL1        0.0628
     31 C          63.9403   88.3809   13.6021 C.ar    1  UNL1        0.2469
     32 N          63.3878   87.4427   12.5703 N.ar    1  UNL1       -0.1238
     33 N          63.2724   85.9781   12.8734 N.ar    1  UNL1       -0.1830
     34 O          64.0557   89.8453   13.2990 O.3     1  UNL1       -0.4349
     35 C          64.7751   90.7539   14.2513 C.ar    1  UNL1        0.1495
     36 C          64.1215   91.1601   15.5388 C.ar    1  UNL1        0.0377
     37 C          64.8409   92.0687   16.4911 C.ar    1  UNL1        0.0054
     38 C          66.2138   92.5712   16.1560 C.ar    1  UNL1        0.0298
     39 C          66.8675   92.1650   14.8684 C.ar    1  UNL1        0.1432
     40 F          68.2405   92.6674   14.5331 F       1  UNL1       -0.2041
     41 C          66.1481   91.2564   13.9161 C.ar    1  UNL1        0.0672
@<TRIPOS>BOND
     1    10    11    2
     2    11    12   am
     3    12    16    1
     4    16    17    1
     5    17    18    1
     6    18    19    1
     7    19    20    1
     8    20    21    1
     9    21    22    1
    10    22    23    1
    11    11    13   am
    12    13     1    1
    13     1     2   ar
    14     2     3   ar
    15     3     4   ar
    16     4     5   ar
    17     5     6   ar
    18     6    24    1
    19    24    25    1
    20    25    26   ar
    21    26    27   ar
    22    27    28   ar
    23    28    29   ar
    24    29    30   ar
    25    30    31   ar
    26    31    34    1
    27    34    35    1
    28    35    36   ar
    29    36    37   ar
    30    37    38   ar
    31    38    39   ar
    32    39    40    1
    33    39    41   ar
    34    31    32   ar
    35    32    33   ar
    36     6     7   ar
    37     7     8   ar
    38     8     9   ar
    39    23    18    1
    40     9     1   ar
    41     8     3   ar
    42    33    25   ar
    43    33    28   ar
    44    41    35   ar
    45    12    14    1
    46    13    15    1
@<TRIPOS>MOLECULE
*****
 41 46 0 0 0
SMALL
GASTEIGER

@<TRIPOS>ATOM
      1 C          61.3661   92.5918    2.8553 C.ar    1  UNL1        0.1667
      2 N          59.8982   92.8822    2.9595 N.ar    1  UNL1       -0.2239
      3 C          59.3258   91.9997    4.0288 C.ar    1  UNL1        0.0893
      4 C          57.9340   91.8492    4.5675 C.ar    1  UNL1        0.0202
      5 C          57.6563   90.8628    5.6628 C.ar    1  UNL1        0.0081
      6 C          58.7705   90.0268    6.2195 C.ar    1  UNL1        0.0329
      7 C          60.1623   90.1773    5.6809 C.ar    1  UNL1        0.0146
      8 C          60.4399   91.1637    4.5855 C.ar    1  UNL1        0.0502
      9 S          61.7009   91.5297    3.8602 S.2     1  UNL1       -0.0513
     10 O          60.9994   92.2992   -0.1078 O.2     1  UNL1       -0.2524
     11 C          62.1466   93.1019    0.4304 C.2     1  UNL1        0.3059
     12 N          63.1105   93.7583   -0.5131 N.am    1  UNL1       -0.2872
     13 N          62.3300   93.2482    1.9119 N.am    1  UNL1       -0.2485
     14 H          63.8635   94.2852   -0.1599 H       1  UNL1        0.1510
     15 H          63.0829   93.7751    2.2651 H       1  UNL1        0.1583
     16 C          62.9271   93.6120   -1.9947 C.3     1  UNL1        0.1082
     17 C          64.0446   93.9731   -2.9280 C.3     1  UNL1        0.0938
     18 N          64.0230   93.4876   -4.3470 N.3     1  UNL1       -0.2670
     19 C          64.9752   92.4155   -4.7875 C.3     1  UNL1        0.1047
     20 C          64.9536   91.9300   -6.2065 C.3     1  UNL1        0.1595
     21 O          63.9799   92.5166   -7.1852 O.3     1  UNL1       -0.3508
     22 C          63.0278   93.5887   -6.7448 C.3     1  UNL1        0.1595
     23 C          63.0493   94.0742   -5.3257 C.3     1  UNL1        0.1047
     24 S          58.4928   89.0404    7.3150 S.3     1  UNL1       -0.0470
     25 C          59.4705   87.9385    7.5976 C.ar    1  UNL1        0.2172
     26 N          59.7089   86.7302    6.7414 N.ar    1  UNL1       -0.1200
     27 N          60.7672   85.8964    7.4007 N.ar    1  UNL1       -0.1264
     28 C          61.1829   86.5894    8.6644 C.ar    1  UNL1        0.1874
     29 C          62.1876   86.2343    9.7201 C.ar    1  UNL1        0.0455
     30 C          62.3909   87.1411   10.8974 C.ar    1  UNL1        0.0628
     31 C          61.5895   88.4033   11.0191 C.ar    1  UNL1        0.2469
     32 N          60.5848   88.7584    9.9635 N.ar    1  UNL1       -0.1238
     33 N          60.3814   87.8515    8.7861 N.ar    1  UNL1       -0.1830
     34 O          61.7928   89.3102   12.1964 O.3     1  UNL1       -0.4349
     35 C          62.9774   90.2293   12.2394 C.ar    1  UNL1        0.1495
     36 C          63.3284   91.0571   11.0388 C.ar    1  UNL1        0.0377
     37 C          64.5130   91.9762   11.0818 C.ar    1  UNL1        0.0054
     38 C          65.3467   92.0676   12.3253 C.ar    1  UNL1        0.0298
     39 C          64.9958   91.2397   13.5260 C.ar    1  UNL1        0.1432
     40 F          65.8295   91.3310   14.7696 F       1  UNL1       -0.2041
     41 C          63.8112   90.3206   13.4830 C.ar    1  UNL1        0.0672
@<TRIPOS>BOND
     1    10    11    2
     2    11    12   am
     3    12    16    1
     4    16    17    1
     5    17    18    1
     6    18    19    1
     7    19    20    1
     8    20    21    1
     9    21    22    1
    10    22    23    1
    11    11    13   am
    12    13     1    1
    13     1     2   ar
    14     2     3   ar
    15     3     4   ar
    16     4     5   ar
    17     5     6   ar
    18     6    24    1
    19    24    25    1
    20    25    26   ar
    21    26    27   ar
    22    27    28   ar
    23    28    29   ar
    24    29    30   ar
    25    30    31   ar
    26    31    34    1
    27    34    35    1
    28    35    36   ar
    29    36    37   ar
    30    37    38   ar
    31    38    39   ar
    32    39    40    1
    33    39    41   ar
    34    31    32   ar
    35    32    33   ar
    36     6     7   ar
    37     7     8   ar
    38     8     9   ar
    39    23    18    1
    40     9     1   ar
    41     8     3   ar
    42    33    25   ar
    43    33    28   ar
    44    41    35   ar
    45    12    14    1
    46    13    15    1
