@<TRIPOS>MOLECULE
*****
 23 23 0 0 0
SMALL
GASTEIGER

@<TRIPOS>ATOM
      1 C          61.1129   88.2916   10.9998 C.3     1  UNL1        0.1085
      2 C          62.5332   88.7329   11.1954 C.3     1  UNL1        0.2108
      3 N          63.1717   88.6275   12.5486 N.pl3   1  UNL1       -0.2175
      4 H          63.4114   87.7446   12.9124 H       1  UNL1        0.2922
      5 C          63.4449   89.8672   13.3476 C.2     1  UNL1        0.3431
      6 C          63.8283   89.7581   14.7937 C.2     1  UNL1        0.4396
      7 C          64.4479   91.7249   11.8332 C.3     1  UNL1        0.2503
      8 N          63.3348   91.2160   12.7005 N.pl3   1  UNL1       -0.2148
      9 H          62.5320   91.7672   12.8450 H       1  UNL1        0.2923
     10 N          64.1016   90.9980   15.5926 N.pl3   1  UNL1        0.0952
     11 O          63.3322   91.2629   16.8527 O.2     1  UNL1        0.0419
     12 O          65.1443   91.9727   15.1315 O.co2   1  UNL1       -0.5756
     13 S          60.8205   86.9649   10.3640 S.3     1  UNL1       -0.1278
     14 C          61.9052   85.9359   10.2431 C.3     1  UNL1        0.1219
     15 C          62.2751   85.0933   11.4276 C.ar    1  UNL1        0.1333
     16 C          62.7789   83.6811   11.3823 C.ar    1  UNL1        0.0367
     17 C          63.0214   83.2299   12.7921 C.ar    1  UNL1        0.0372
     18 C          62.6674   84.3632   13.7088 C.ar    1  UNL1        0.1386
     19 O          62.2062   85.5148   12.8655 O.2     1  UNL1       -0.4598
     20 C          62.7586   84.3477   15.2059 C.3     1  UNL1        0.1377
     21 N          63.3093   85.5366   15.9361 N.3     1  UNL1       -0.2639
     22 C          62.6583   86.0062   17.2033 C.3     1  UNL1        0.0900
     23 C          64.5111   86.2560   15.3992 C.3     1  UNL1        0.0900
@<TRIPOS>UNITY_ATOM_ATTR
10 1
charge 1
12 1
charge -1
@<TRIPOS>BOND
     1     7     8    1
     2     8     5    1
     3     5     6    2
     4     6    10    1
     5    10    11    2
     6    10    12    1
     7     5     3    1
     8     3     2    1
     9     2     1    1
    10     1    13    1
    11    13    14    1
    12    14    15    1
    13    15    16   ar
    14    16    17   ar
    15    17    18   ar
    16    18    20    1
    17    20    21    1
    18    21    22    1
    19    21    23    1
    20    18    19   ar
    21    19    15   ar
    22     8     9    1
    23     3     4    1
@<TRIPOS>MOLECULE
*****
 23 23 0 0 0
SMALL
GASTEIGER

@<TRIPOS>ATOM
      1 C          61.6450   89.7470   11.9784 C.3     1  UNL1        0.1085
      2 C          63.1229   89.6516   12.2173 C.3     1  UNL1        0.2108
      3 N          63.6391   89.0920   13.5097 N.pl3   1  UNL1       -0.2175
      4 H          63.9358   88.1544   13.5565 H       1  UNL1        0.2922
      5 C          63.7033   89.9608   14.7307 C.2     1  UNL1        0.3431
      6 C          64.6821   91.0957   14.7932 C.2     1  UNL1        0.4396
      7 C          63.1029   88.5907   16.8550 C.3     1  UNL1        0.2503
      8 N          62.7885   89.6947   15.8894 N.pl3   1  UNL1       -0.2148
      9 H          61.9819   90.2446   16.0162 H       1  UNL1        0.2923
     10 N          64.7462   91.9645   16.0143 N.pl3   1  UNL1        0.0952
     11 O          66.0614   92.5256   16.4673 O.2     1  UNL1        0.0419
     12 O          63.4950   92.2721   16.7824 O.co2   1  UNL1       -0.5756
     13 S          61.0660   89.2954   10.6704 S.3     1  UNL1       -0.1278
     14 C          60.4712   87.9240   10.5471 C.3     1  UNL1        0.1219
     15 C          61.3358   86.7121   10.7311 C.ar    1  UNL1        0.1333
     16 C          62.0585   85.9715    9.6453 C.ar    1  UNL1        0.0367
     17 C          62.7988   84.8297   10.2764 C.ar    1  UNL1        0.0372
     18 C          62.5337   84.8647   11.7523 C.ar    1  UNL1        0.1386
     19 O          61.6295   86.0281   12.0334 O.2     1  UNL1       -0.4598
     20 C          63.0773   83.9049   12.7688 C.3     1  UNL1        0.1377
     21 N          63.2844   84.3509   14.1859 N.3     1  UNL1       -0.2639
     22 C          64.1706   85.5247   14.4808 C.3     1  UNL1        0.0900
     23 C          62.6054   83.6231   15.3081 C.3     1  UNL1        0.0900
@<TRIPOS>UNITY_ATOM_ATTR
10 1
charge 1
12 1
charge -1
@<TRIPOS>BOND
     1     7     8    1
     2     8     5    1
     3     5     6    2
     4     6    10    1
     5    10    11    2
     6    10    12    1
     7     5     3    1
     8     3     2    1
     9     2     1    1
    10     1    13    1
    11    13    14    1
    12    14    15    1
    13    15    16   ar
    14    16    17   ar
    15    17    18   ar
    16    18    20    1
    17    20    21    1
    18    21    22    1
    19    21    23    1
    20    18    19   ar
    21    19    15   ar
    22     8     9    1
    23     3     4    1
@<TRIPOS>MOLECULE
*****
 23 23 0 0 0
SMALL
GASTEIGER

@<TRIPOS>ATOM
      1 C          63.0060   81.3224   12.3432 C.3     1  UNL1        0.1085
      2 C          62.2921   82.2278   13.3027 C.3     1  UNL1        0.2108
      3 N          62.6993   82.2619   14.7460 N.pl3   1  UNL1       -0.2175
      4 H          62.6657   81.4397   15.2865 H       1  UNL1        0.2922
      5 C          63.1577   83.5486   15.3658 C.2     1  UNL1        0.3431
      6 C          62.1572   84.4868   15.9732 C.2     1  UNL1        0.4396
      7 C          65.2647   84.4559   14.1462 C.3     1  UNL1        0.2503
      8 N          64.6166   83.8973   15.3782 N.pl3   1  UNL1       -0.2148
      9 H          65.1487   83.7594   16.1949 H       1  UNL1        0.2923
     10 N          62.6157   85.7736   16.5930 N.pl3   1  UNL1        0.0952
     11 O          62.1664   86.1418   17.9759 O.2     1  UNL1        0.0419
     12 O          63.5233   86.6920   15.8298 O.co2   1  UNL1       -0.5756
     13 S          63.4825   81.8538   11.0239 S.3     1  UNL1       -0.1278
     14 C          64.0626   83.2343   10.9367 C.3     1  UNL1        0.1219
     15 C          63.2563   84.3505   10.3419 C.ar    1  UNL1        0.1333
     16 C          63.2477   84.7602    8.8990 C.ar    1  UNL1        0.0367
     17 C          62.3030   85.9159    8.7508 C.ar    1  UNL1        0.0372
     18 C          61.7277   86.2204   10.1022 C.ar    1  UNL1        0.1386
     19 O          62.3168   85.2530   11.0855 O.2     1  UNL1       -0.4598
     20 C          60.7371   87.3025   10.4153 C.3     1  UNL1        0.1377
     21 N          60.7792   88.5987    9.6617 N.3     1  UNL1       -0.2639
     22 C          59.9523   88.7730    8.4224 C.3     1  UNL1        0.0900
     23 C          61.6483   89.7207   10.1474 C.3     1  UNL1        0.0900
@<TRIPOS>UNITY_ATOM_ATTR
10 1
charge 1
12 1
charge -1
@<TRIPOS>BOND
     1     7     8    1
     2     8     5    1
     3     5     6    2
     4     6    10    1
     5    10    11    2
     6    10    12    1
     7     5     3    1
     8     3     2    1
     9     2     1    1
    10     1    13    1
    11    13    14    1
    12    14    15    1
    13    15    16   ar
    14    16    17   ar
    15    17    18   ar
    16    18    20    1
    17    20    21    1
    18    21    22    1
    19    21    23    1
    20    18    19   ar
    21    19    15   ar
    22     8     9    1
    23     3     4    1
@<TRIPOS>MOLECULE
*****
 23 23 0 0 0
SMALL
GASTEIGER

@<TRIPOS>ATOM
      1 C          61.2357   86.2350   10.8500 C.3     1  UNL1        0.1085
      2 C          62.5873   85.9461   11.4329 C.3     1  UNL1        0.2108
      3 N          62.6997   85.2655   12.7648 N.pl3   1  UNL1       -0.2175
      4 H          62.8221   85.8004   13.5822 H       1  UNL1        0.2922
      5 C          62.6256   83.7698   12.8515 C.2     1  UNL1        0.3431
      6 C          62.2794   83.1102   14.1534 C.2     1  UNL1        0.4396
      7 C          64.3094   82.5894   11.2635 C.3     1  UNL1        0.2503
      8 N          62.8979   82.9337   11.6361 N.pl3   1  UNL1       -0.2148
      9 H          62.1500   82.6110   11.0831 H       1  UNL1        0.2923
     10 N          62.2053   81.6145   14.2400 N.pl3   1  UNL1        0.0952
     11 O          63.4656   80.8017   14.2704 O.2     1  UNL1        0.0419
     12 O          60.8710   80.9317   14.2962 O.co2   1  UNL1       -0.5756
     13 S          61.0986   87.2178    9.7251 S.3     1  UNL1       -0.1278
     14 C          60.8531   88.6675   10.0214 C.3     1  UNL1        0.1219
     15 C          61.8161   89.4307   10.8817 C.ar    1  UNL1        0.1333
     16 C          62.7758   90.4831   10.4110 C.ar    1  UNL1        0.0367
     17 C          63.5414   90.9784   11.6021 C.ar    1  UNL1        0.0372
     18 C          63.0549   90.2321   12.8089 C.ar    1  UNL1        0.1386
     19 O          61.9886   89.2756   12.3636 O.2     1  UNL1       -0.4598
     20 C          63.5481   90.4108   14.2141 C.3     1  UNL1        0.1377
     21 N          63.6796   89.2223   15.1197 N.3     1  UNL1       -0.2639
     22 C          63.1155   89.2716   16.5088 C.3     1  UNL1        0.0900
     23 C          64.3752   87.9844   14.6362 C.3     1  UNL1        0.0900
@<TRIPOS>UNITY_ATOM_ATTR
10 1
charge 1
12 1
charge -1
@<TRIPOS>BOND
     1     7     8    1
     2     8     5    1
     3     5     6    2
     4     6    10    1
     5    10    11    2
     6    10    12    1
     7     5     3    1
     8     3     2    1
     9     2     1    1
    10     1    13    1
    11    13    14    1
    12    14    15    1
    13    15    16   ar
    14    16    17   ar
    15    17    18   ar
    16    18    20    1
    17    20    21    1
    18    21    22    1
    19    21    23    1
    20    18    19   ar
    21    19    15   ar
    22     8     9    1
    23     3     4    1
@<TRIPOS>MOLECULE
*****
 23 23 0 0 0
SMALL
GASTEIGER

@<TRIPOS>ATOM
      1 C          62.7774   84.3301   13.9279 C.3     1  UNL1        0.1085
      2 C          63.3594   84.2282   15.3067 C.3     1  UNL1        0.2108
      3 N          64.2946   85.2893   15.8063 N.pl3   1  UNL1       -0.2175
      4 H          65.1837   85.0406   16.1481 H       1  UNL1        0.2922
      5 C          63.8750   86.7292   15.7852 C.2     1  UNL1        0.3431
      6 C          64.4684   87.6686   14.7774 C.2     1  UNL1        0.4396
      7 C          62.7168   86.5569   18.1044 C.3     1  UNL1        0.2503
      8 N          62.8621   87.2299   16.7718 N.pl3   1  UNL1       -0.2148
      9 H          62.2926   88.0002   16.5447 H       1  UNL1        0.2923
     10 N          64.0488   89.1086   14.7563 N.pl3   1  UNL1        0.0952
     11 O          65.0333   90.1710   14.3666 O.2     1  UNL1        0.0419
     12 O          62.6446   89.4861   15.1250 O.co2   1  UNL1       -0.5756
     13 S          63.5864   83.9038   12.7389 S.3     1  UNL1       -0.1278
     14 C          62.9312   83.7645   11.3968 C.3     1  UNL1        0.1219
     15 C          62.3627   84.9713   10.7109 C.ar    1  UNL1        0.1333
     16 C          62.7095   85.4462    9.3310 C.ar    1  UNL1        0.0367
     17 C          61.9088   86.6835    9.0516 C.ar    1  UNL1        0.0372
     18 C          61.0670   86.9732   10.2589 C.ar    1  UNL1        0.1386
     19 O          61.3476   85.9150   11.2844 O.2     1  UNL1       -0.4598
     20 C          60.1123   88.1198   10.4136 C.3     1  UNL1        0.1377
     21 N          60.5345   89.3521   11.1574 N.3     1  UNL1       -0.2639
     22 C          59.5347   90.4317   11.4487 C.3     1  UNL1        0.0900
     23 C          61.9565   89.5048   11.6098 C.3     1  UNL1        0.0900
@<TRIPOS>UNITY_ATOM_ATTR
10 1
charge 1
12 1
charge -1
@<TRIPOS>BOND
     1     7     8    1
     2     8     5    1
     3     5     6    2
     4     6    10    1
     5    10    11    2
     6    10    12    1
     7     5     3    1
     8     3     2    1
     9     2     1    1
    10     1    13    1
    11    13    14    1
    12    14    15    1
    13    15    16   ar
    14    16    17   ar
    15    17    18   ar
    16    18    20    1
    17    20    21    1
    18    21    22    1
    19    21    23    1
    20    18    19   ar
    21    19    15   ar
    22     8     9    1
    23     3     4    1
@<TRIPOS>MOLECULE
*****
 23 23 0 0 0
SMALL
GASTEIGER

@<TRIPOS>ATOM
      1 C          65.7526   91.0452   14.3994 C.3     1  UNL1        0.1085
      2 C          66.2868   92.3183   13.8130 C.3     1  UNL1        0.2108
      3 N          65.6674   92.8905   12.5724 N.pl3   1  UNL1       -0.2175
      4 H          64.6877   92.9438   12.4910 H       1  UNL1        0.2922
      5 C          66.5406   93.3812   11.4560 C.2     1  UNL1        0.3431
      6 C          67.2901   92.4006   10.6035 C.2     1  UNL1        0.4396
      7 C          65.5855   95.5728   10.4387 C.3     1  UNL1        0.2503
      8 N          66.6643   94.8527   11.1919 N.pl3   1  UNL1       -0.2148
      9 H          67.4537   95.3457   11.5129 H       1  UNL1        0.2923
     10 N          68.1634   92.8915    9.4870 N.pl3   1  UNL1        0.0952
     11 O          68.6968   94.2932    9.5128 O.2     1  UNL1        0.0419
     12 O          68.5032   91.9806    8.3447 O.co2   1  UNL1       -0.5756
     13 S          64.2993   90.7039   14.2530 S.3     1  UNL1       -0.1278
     14 C          63.8921   89.4442   13.5477 C.3     1  UNL1        0.1219
     15 C          63.1164   89.5195   12.2661 C.ar    1  UNL1        0.1333
     16 C          63.2489   90.5828   11.2164 C.ar    1  UNL1        0.0367
     17 C          62.2864   90.2651   10.1106 C.ar    1  UNL1        0.0372
     18 C          61.5592   89.0054   10.4768 C.ar    1  UNL1        0.1386
     19 O          62.0721   88.5446   11.8089 O.2     1  UNL1       -0.4598
     20 C          60.5042   88.3258    9.6552 C.3     1  UNL1        0.1377
     21 N          60.8281   87.0614    8.9159 N.3     1  UNL1       -0.2639
     22 C          62.1880   86.4424    9.0487 C.3     1  UNL1        0.0900
     23 C          59.7922   86.4161    8.0439 C.3     1  UNL1        0.0900
@<TRIPOS>UNITY_ATOM_ATTR
10 1
charge 1
12 1
charge -1
@<TRIPOS>BOND
     1     7     8    1
     2     8     5    1
     3     5     6    2
     4     6    10    1
     5    10    11    2
     6    10    12    1
     7     5     3    1
     8     3     2    1
     9     2     1    1
    10     1    13    1
    11    13    14    1
    12    14    15    1
    13    15    16   ar
    14    16    17   ar
    15    17    18   ar
    16    18    20    1
    17    20    21    1
    18    21    22    1
    19    21    23    1
    20    18    19   ar
    21    19    15   ar
    22     8     9    1
    23     3     4    1
@<TRIPOS>MOLECULE
*****
 23 23 0 0 0
SMALL
GASTEIGER

@<TRIPOS>ATOM
      1 C          65.2201   91.5372   13.5488 C.3     1  UNL1        0.1085
      2 C          66.1630   92.6673   13.2588 C.3     1  UNL1        0.2108
      3 N          65.7418   93.7796   12.3449 N.pl3   1  UNL1       -0.2175
      4 H          64.9435   94.3153   12.5569 H       1  UNL1        0.2922
      5 C          66.5369   94.0758   11.1080 C.2     1  UNL1        0.3431
      6 C          66.9606   92.9571   10.2030 C.2     1  UNL1        0.4396
      7 C          66.0712   96.6255   11.2870 C.3     1  UNL1        0.2503
      8 N          66.9085   95.4907   10.7760 N.pl3   1  UNL1       -0.2148
      9 H          67.7018   95.6744   10.2228 H       1  UNL1        0.2923
     10 N          67.7558   93.2533    8.9660 N.pl3   1  UNL1        0.0952
     11 O          68.7805   92.2715    8.4801 O.2     1  UNL1        0.0419
     12 O          67.5263   94.5313    8.2150 O.co2   1  UNL1       -0.5756
     13 S          64.1323   91.1989   12.5730 S.3     1  UNL1       -0.1278
     14 C          63.1155   90.1511   12.9169 C.3     1  UNL1        0.1219
     15 C          62.7298   89.1180   11.9000 C.ar    1  UNL1        0.1333
     16 C          62.4652   89.3688   10.4450 C.ar    1  UNL1        0.0367
     17 C          62.1129   88.0585    9.8054 C.ar    1  UNL1        0.0372
     18 C          62.1596   86.9980   10.8651 C.ar    1  UNL1        0.1386
     19 O          62.5409   87.6528   12.1597 O.2     1  UNL1       -0.4598
     20 C          61.8750   85.5388   10.6655 C.3     1  UNL1        0.1377
     21 N          62.8156   84.5089   11.2174 N.3     1  UNL1       -0.2639
     22 C          62.8658   84.2542   12.6948 C.3     1  UNL1        0.0900
     23 C          63.7059   83.7338   10.2919 C.3     1  UNL1        0.0900
@<TRIPOS>UNITY_ATOM_ATTR
10 1
charge 1
12 1
charge -1
@<TRIPOS>BOND
     1     7     8    1
     2     8     5    1
     3     5     6    2
     4     6    10    1
     5    10    11    2
     6    10    12    1
     7     5     3    1
     8     3     2    1
     9     2     1    1
    10     1    13    1
    11    13    14    1
    12    14    15    1
    13    15    16   ar
    14    16    17   ar
    15    17    18   ar
    16    18    20    1
    17    20    21    1
    18    21    22    1
    19    21    23    1
    20    18    19   ar
    21    19    15   ar
    22     8     9    1
    23     3     4    1
@<TRIPOS>MOLECULE
*****
 23 23 0 0 0
SMALL
GASTEIGER

@<TRIPOS>ATOM
      1 C          63.3474   90.3971   13.8541 C.3     1  UNL1        0.1085
      2 C          63.8996   91.3169   12.8057 C.3     1  UNL1        0.2108
      3 N          65.3657   91.6334   12.7825 N.pl3   1  UNL1       -0.2175
      4 H          66.0197   90.9585   13.0758 H       1  UNL1        0.2922
      5 C          65.8354   92.9782   12.3125 C.2     1  UNL1        0.3431
      6 C          65.4931   93.4514   10.9308 C.2     1  UNL1        0.4396
      7 C          66.8880   93.4311   14.6442 C.3     1  UNL1        0.2503
      8 N          66.6473   93.8498   13.2241 N.pl3   1  UNL1       -0.2148
      9 H          67.0223   94.6967   12.8904 H       1  UNL1        0.2923
     10 N          65.9628   94.7962   10.4608 N.pl3   1  UNL1        0.0952
     11 O          67.4311   95.0766   10.3368 O.2     1  UNL1        0.0419
     12 O          64.9641   95.8607   10.1149 O.co2   1  UNL1       -0.5756
     13 S          63.9584   90.3684   15.2237 S.3     1  UNL1       -0.1278
     14 C          63.2276   89.7119   16.3573 C.3     1  UNL1        0.1219
     15 C          63.2180   88.2168   16.4777 C.ar    1  UNL1        0.1333
     16 C          62.6661   87.4284   17.6283 C.ar    1  UNL1        0.0367
     17 C          62.8655   85.9719   17.3303 C.ar    1  UNL1        0.0372
     18 C          63.5407   85.8601   15.9955 C.ar    1  UNL1        0.1386
     19 O          63.7585   87.2475   15.4686 O.2     1  UNL1       -0.4598
     20 C          63.9297   84.5848   15.3083 C.3     1  UNL1        0.1377
     21 N          63.0169   83.9751   14.2861 N.3     1  UNL1       -0.2639
     22 C          62.3330   82.6713   14.5738 C.3     1  UNL1        0.0900
     23 C          62.7879   84.6690   12.9761 C.3     1  UNL1        0.0900
@<TRIPOS>UNITY_ATOM_ATTR
10 1
charge 1
12 1
charge -1
@<TRIPOS>BOND
     1     7     8    1
     2     8     5    1
     3     5     6    2
     4     6    10    1
     5    10    11    2
     6    10    12    1
     7     5     3    1
     8     3     2    1
     9     2     1    1
    10     1    13    1
    11    13    14    1
    12    14    15    1
    13    15    16   ar
    14    16    17   ar
    15    17    18   ar
    16    18    20    1
    17    20    21    1
    18    21    22    1
    19    21    23    1
    20    18    19   ar
    21    19    15   ar
    22     8     9    1
    23     3     4    1
@<TRIPOS>MOLECULE
*****
 23 23 0 0 0
SMALL
GASTEIGER

@<TRIPOS>ATOM
      1 C          62.4577   89.5713   10.2920 C.3     1  UNL1        0.1085
      2 C          62.6099   90.7759   11.1728 C.3     1  UNL1        0.2108
      3 N          62.7981   90.6050   12.6511 N.pl3   1  UNL1       -0.2175
      4 H          62.1174   90.1324   13.1827 H       1  UNL1        0.2922
      5 C          64.0235   91.1541   13.3196 C.2     1  UNL1        0.3431
      6 C          64.9502   92.0577   12.5616 C.2     1  UNL1        0.4396
      7 C          63.5181   89.7402   15.4399 C.3     1  UNL1        0.2503
      8 N          64.3222   90.7995   14.7462 N.pl3   1  UNL1       -0.2148
      9 H          65.0460   91.2621   15.2272 H       1  UNL1        0.2923
     10 N          66.1757   92.6068   13.2301 N.pl3   1  UNL1        0.0952
     11 O          67.5251   92.4008   12.6085 O.2     1  UNL1        0.0419
     12 O          66.0515   93.3618   14.5203 O.co2   1  UNL1       -0.5756
     13 S          61.0892   89.0755    9.9293 S.3     1  UNL1       -0.1278
     14 C          60.5144   87.8804   10.6302 C.3     1  UNL1        0.1219
     15 C          61.3598   86.6607   10.8488 C.ar    1  UNL1        0.1333
     16 C          62.0723   85.8795    9.7849 C.ar    1  UNL1        0.0367
     17 C          62.7940   84.7441   10.4483 C.ar    1  UNL1        0.0372
     18 C          62.5273   84.8236   11.9223 C.ar    1  UNL1        0.1386
     19 O          61.6410   86.0081   12.1698 O.2     1  UNL1       -0.4598
     20 C          63.0545   83.8835   12.9656 C.3     1  UNL1        0.1377
     21 N          63.3819   84.3934   14.3377 N.3     1  UNL1       -0.2639
     22 C          62.3987   84.2189   15.4571 C.3     1  UNL1        0.0900
     23 C          64.6926   85.0776   14.5906 C.3     1  UNL1        0.0900
@<TRIPOS>UNITY_ATOM_ATTR
10 1
charge 1
12 1
charge -1
@<TRIPOS>BOND
     1     7     8    1
     2     8     5    1
     3     5     6    2
     4     6    10    1
     5    10    11    2
     6    10    12    1
     7     5     3    1
     8     3     2    1
     9     2     1    1
    10     1    13    1
    11    13    14    1
    12    14    15    1
    13    15    16   ar
    14    16    17   ar
    15    17    18   ar
    16    18    20    1
    17    20    21    1
    18    21    22    1
    19    21    23    1
    20    18    19   ar
    21    19    15   ar
    22     8     9    1
    23     3     4    1
