@<TRIPOS>MOLECULE
*****
 36 40 0 0 0
SMALL
GASTEIGER

@<TRIPOS>ATOM
      1 N          63.0666   90.9928   11.6833 N.am    1  UNL1       -0.2438
      2 C          63.5774   91.6235   10.4218 C.3     1  UNL1        0.1009
      3 C          64.7705   92.5316   10.4671 C.3     1  UNL1        0.0662
      4 C          65.4528   92.8089   11.7738 C.3     1  UNL1        0.1600
      5 O          64.9420   92.1781   13.0353 O.3     1  UNL1       -0.4374
      6 C          63.7490   91.2702   12.9900 C.2     1  UNL1        0.4051
      7 O          63.2381   90.6394   14.2515 O.2     1  UNL1       -0.2262
      8 C          66.3031   93.6356   10.8554 C.ar    1  UNL1        0.0138
      9 C          66.2687   95.1325   10.9461 C.ar    1  UNL1       -0.0010
     10 C          67.1190   95.9592   10.0276 C.ar    1  UNL1       -0.0002
     11 C          68.0036   95.2891    9.0185 C.ar    1  UNL1       -0.0000
     12 C          68.0380   93.7923    8.9279 C.ar    1  UNL1       -0.0002
     13 C          67.1877   92.9655    9.8463 C.ar    1  UNL1       -0.0010
     14 C          60.4915   90.6647   11.5787 C.3     1  UNL1        0.0265
     15 C          61.8735   90.0848   11.6381 C.3     1  UNL1        0.1011
     16 C          62.0625   88.5968   11.6522 C.ar    1  UNL1       -0.0042
     17 C          61.2044   87.7236   10.7856 C.ar    1  UNL1       -0.0027
     18 C          61.3934   86.2355   10.7998 C.ar    1  UNL1       -0.0002
     19 C          62.4405   85.6209   11.6804 C.ar    1  UNL1        0.0015
     20 C          63.2987   86.4941   12.5470 C.ar    1  UNL1       -0.0002
     21 C          63.1097   87.9821   12.5329 C.ar    1  UNL1       -0.0027
     22 C          62.6296   84.1328   11.6946 C.ar    1  UNL1        0.0193
     23 C          63.2917   83.4499   10.5349 C.ar    1  UNL1        0.0047
     24 C          63.4807   81.9618   10.5491 C.ar    1  UNL1        0.0389
     25 C          63.0076   81.1569   11.7230 C.ar    1  UNL1        0.1656
     26 N          63.0562   79.6868   12.0170 N.ar    1  UNL1       -0.2034
     27 C          62.4240   79.4613   13.3585 C.ar    1  UNL1        0.2213
     28 N          61.9848   80.7920   13.8936 N.ar    1  UNL1       -0.1409
     29 N          62.3454   81.8400   12.8828 N.ar    1  UNL1       -0.2092
     30 C          62.1564   83.3279   12.8685 C.ar    1  UNL1        0.1021
     31 C          66.4304   93.3733   12.7616 C.3     1  UNL1        0.0714
     32 C          67.0752   92.4753   13.7754 C.3     1  UNL1        0.0922
     33 C          66.4027   93.2377   14.8784 C.3     1  UNL1        0.0294
     34 C          67.7478   91.7129   12.6725 C.3     1  UNL1        0.0294
     35 O          67.7200   91.5774   14.7893 O.3     1  UNL1       -0.3866
     36 H          67.4490   91.8487   15.6803 H       1  UNL1        0.2102
@<TRIPOS>BOND
     1    15    14    1
     2    15    16    1
     3    16    17   ar
     4    17    18   ar
     5    18    19   ar
     6    19    22    1
     7    22    23   ar
     8    23    24   ar
     9    24    25   ar
    10    25    26   ar
    11    26    27   ar
    12    27    28   ar
    13    28    29   ar
    14    29    30   ar
    15    19    20   ar
    16    20    21   ar
    17    15     1    1
    18     1     2    1
    19     2     3    1
    20     3     4    1
    21     4    31    1
    22    31    32    1
    23    32    33    1
    24    32    34    1
    25    32    35    1
    26     4     8    1
    27     8     9   ar
    28     9    10   ar
    29    10    11   ar
    30    11    12   ar
    31    12    13   ar
    32     4     5    1
    33     5     6    1
    34     6     7    2
    35    21    16   ar
    36     6     1   am
    37    30    22   ar
    38    13     8   ar
    39    29    25   ar
    40    35    36    1
@<TRIPOS>MOLECULE
*****
 36 40 0 0 0
SMALL
GASTEIGER

@<TRIPOS>ATOM
      1 N          63.5200   90.6983   11.9277 N.am    1  UNL1       -0.2438
      2 C          64.2239   90.5183   13.2400 C.3     1  UNL1        0.1009
      3 C          65.4261   91.3537   13.5670 C.3     1  UNL1        0.0662
      4 C          65.9244   92.3691   12.5818 C.3     1  UNL1        0.1600
      5 O          65.2204   92.5491   11.2694 O.3     1  UNL1       -0.4374
      6 C          64.0183   91.7137   10.9425 C.2     1  UNL1        0.4051
      7 O          63.3143   91.8937    9.6301 O.2     1  UNL1       -0.2262
      8 C          66.9215   92.5653   13.6849 C.ar    1  UNL1        0.0138
      9 C          66.5315   93.3156   14.9238 C.ar    1  UNL1       -0.0010
     10 C          67.5288   93.5119   16.0270 C.ar    1  UNL1       -0.0002
     11 C          68.9160   92.9579   15.8914 C.ar    1  UNL1       -0.0000
     12 C          69.3060   92.2075   14.6525 C.ar    1  UNL1       -0.0002
     13 C          68.3089   92.0112   13.5492 C.ar    1  UNL1       -0.0010
     14 C          61.0302   90.5237   11.2063 C.3     1  UNL1        0.0265
     15 C          62.3178   89.8630   11.6006 C.3     1  UNL1        0.1011
     16 C          62.4033   88.3669   11.6678 C.ar    1  UNL1       -0.0042
     17 C          61.6203   87.5269   10.7027 C.ar    1  UNL1       -0.0027
     18 C          61.7058   86.0308   10.7700 C.ar    1  UNL1       -0.0002
     19 C          62.5741   85.3749   11.8021 C.ar    1  UNL1        0.0015
     20 C          63.3571   86.2149   12.7672 C.ar    1  UNL1       -0.0002
     21 C          63.2717   87.7109   12.7000 C.ar    1  UNL1       -0.0027
     22 C          62.6596   83.8787   11.8694 C.ar    1  UNL1        0.0193
     23 C          63.1302   83.1001   10.6769 C.ar    1  UNL1        0.0047
     24 C          63.2156   81.6039   10.7441 C.ar    1  UNL1        0.0389
     25 C          62.8306   80.8867   12.0040 C.ar    1  UNL1        0.1656
     26 N          62.8115   79.4307   12.3641 N.ar    1  UNL1       -0.2034
     27 C          62.3291   79.3096   13.7793 C.ar    1  UNL1        0.2213
     28 N          62.0501   80.6907   14.2937 N.ar    1  UNL1       -0.1409
     29 N          62.3600   81.6654   13.1965 N.ar    1  UNL1       -0.2092
     30 C          62.2745   83.1615   13.1292 C.ar    1  UNL1        0.1021
     31 C          66.7689   93.4526   11.9797 C.3     1  UNL1        0.0714
     32 C          66.6198   93.8005   10.5282 C.3     1  UNL1        0.0922
     33 C          67.4394   92.6005   10.1564 C.3     1  UNL1        0.0294
     34 C          65.8002   95.0006   10.9000 C.3     1  UNL1        0.0294
     35 O          66.4707   94.1484    9.0768 O.3     1  UNL1       -0.3866
     36 H          66.9383   93.4917    8.5372 H       1  UNL1        0.2102
@<TRIPOS>BOND
     1    15    14    1
     2    15    16    1
     3    16    17   ar
     4    17    18   ar
     5    18    19   ar
     6    19    22    1
     7    22    23   ar
     8    23    24   ar
     9    24    25   ar
    10    25    26   ar
    11    26    27   ar
    12    27    28   ar
    13    28    29   ar
    14    29    30   ar
    15    19    20   ar
    16    20    21   ar
    17    15     1    1
    18     1     2    1
    19     2     3    1
    20     3     4    1
    21     4    31    1
    22    31    32    1
    23    32    33    1
    24    32    34    1
    25    32    35    1
    26     4     8    1
    27     8     9   ar
    28     9    10   ar
    29    10    11   ar
    30    11    12   ar
    31    12    13   ar
    32     4     5    1
    33     5     6    1
    34     6     7    2
    35    21    16   ar
    36     6     1   am
    37    30    22   ar
    38    13     8   ar
    39    29    25   ar
    40    35    36    1
