@<TRIPOS>MOLECULE
*****
 26 29 0 0 0
SMALL
GASTEIGER

@<TRIPOS>ATOM
      1 C          64.0416   89.8063   13.7177 C.ar    1  UNL1        0.1385
      2 C          63.3176   89.5029   12.4396 C.ar    1  UNL1        0.0384
      3 C          63.0048   88.0823   12.0738 C.ar    1  UNL1        0.0203
      4 C          63.4161   86.9650   12.9863 C.ar    1  UNL1        0.0602
      5 C          64.1401   87.2683   14.2644 C.ar    1  UNL1        0.0204
      6 C          64.4529   88.6890   14.6301 C.ar    1  UNL1        0.0384
      7 C          64.4180   85.9685   14.9595 C.ar    1  UNL1        0.0233
      8 C          63.8656   84.8617   14.1109 C.ar    1  UNL1        0.1140
      9 N          63.2464   85.4775   12.8914 N.ar    1  UNL1       -0.3238
     10 C          62.6080   84.6044   11.8522 C.3     1  UNL1        0.1052
     11 C          61.9888   85.2203   10.6326 C.3     1  UNL1        0.0263
     12 C          62.5889   83.1154   12.0324 C.3     1  UNL1        0.1122
     13 N          63.2081   82.4996   13.2520 N.am    1  UNL1       -0.2978
     14 C          63.8465   83.3728   14.2913 C.2     1  UNL1        0.2618
     15 O          64.4657   82.7569   15.5109 O.2     1  UNL1       -0.2686
     16 H          63.1955   81.5223   13.3703 H       1  UNL1        0.1498
     17 O          64.3544   91.2271   14.0835 O.3     1  UNL1       -0.4791
     18 N          66.3393   93.9367   11.0888 N.3     1  UNL1       -0.2737
     19 C          65.3687   92.8909   10.6261 C.3     1  UNL1        0.0758
     20 C          64.7070   91.9876   11.6244 C.3     1  UNL1        0.0609
     21 C          65.0161   92.1302   13.0852 C.3     1  UNL1        0.1687
     22 C          65.9868   93.1761   13.5479 C.3     1  UNL1        0.0609
     23 C          66.6484   94.0793   12.5497 C.3     1  UNL1        0.0758
     24 C          67.8667   94.2592    9.0120 C.3     1  UNL1        0.0173
     25 C          67.0009   94.8399   10.0906 C.3     1  UNL1        0.0576
     26 C          66.7968   96.3238   10.1709 C.3     1  UNL1        0.0173
@<TRIPOS>BOND
     1    24    25    1
     2    25    26    1
     3    25    18    1
     4    18    19    1
     5    19    20    1
     6    20    21    1
     7    21    17    1
     8    17     1    1
     9     1     2   ar
    10     2     3   ar
    11     3     4   ar
    12     4     5   ar
    13     5     6   ar
    14     5     7   ar
    15     7     8   ar
    16     8     9   ar
    17     9    10    1
    18    10    11    1
    19    10    12    1
    20    12    13    1
    21    13    14   am
    22    14    15    2
    23    21    22    1
    24    22    23    1
    25    23    18    1
    26     6     1   ar
    27    14     8    1
    28     9     4   ar
    29    13    16    1
@<TRIPOS>MOLECULE
*****
 26 29 0 0 0
SMALL
GASTEIGER

@<TRIPOS>ATOM
      1 C          62.4849   89.0239   11.1100 C.ar    1  UNL1        0.1385
      2 C          62.8054   90.0890   10.1037 C.ar    1  UNL1        0.0384
      3 C          63.6755   91.2482   10.4898 C.ar    1  UNL1        0.0203
      4 C          64.2250   91.3423   11.8824 C.ar    1  UNL1        0.0602
      5 C          63.9045   90.2772   12.8887 C.ar    1  UNL1        0.0204
      6 C          63.0345   89.1180   12.5026 C.ar    1  UNL1        0.0384
      7 C          64.5850   90.6363   14.1763 C.ar    1  UNL1        0.0233
      8 C          65.3261   91.9233   13.9658 C.ar    1  UNL1        0.1140
      9 N          65.1036   92.3597   12.5480 N.ar    1  UNL1       -0.3238
     10 C          65.7298   93.6270   12.0464 C.3     1  UNL1        0.1052
     11 C          65.5073   94.0634   10.6286 C.3     1  UNL1        0.0263
     12 C          66.5784   94.4580   12.9624 C.3     1  UNL1        0.1122
     13 N          66.8009   94.0217   14.3802 N.am    1  UNL1       -0.2978
     14 C          66.1747   92.7543   14.8819 C.2     1  UNL1        0.2618
     15 O          66.3972   92.3179   16.2997 O.2     1  UNL1       -0.2686
     16 H          67.3579   94.5671   14.9815 H       1  UNL1        0.1498
     17 O          61.6148   87.8646   10.7239 O.3     1  UNL1       -0.4791
     18 N          63.1118   83.6538   11.2516 N.3     1  UNL1       -0.2737
     19 C          62.6550   84.4422   12.4431 C.3     1  UNL1        0.0758
     20 C          62.1560   85.8459   12.2672 C.3     1  UNL1        0.0609
     21 C          62.1138   86.4610   10.8998 C.3     1  UNL1        0.1687
     22 C          62.5706   85.6725    9.7083 C.3     1  UNL1        0.0609
     23 C          63.0696   84.2690    9.8841 C.3     1  UNL1        0.0758
     24 C          63.3721   81.2294   10.3547 C.3     1  UNL1        0.0173
     25 C          63.6108   82.2503   11.4274 C.3     1  UNL1        0.0576
     26 C          64.3486   81.8675   12.6762 C.3     1  UNL1        0.0173
@<TRIPOS>BOND
     1    24    25    1
     2    25    26    1
     3    25    18    1
     4    18    19    1
     5    19    20    1
     6    20    21    1
     7    21    17    1
     8    17     1    1
     9     1     2   ar
    10     2     3   ar
    11     3     4   ar
    12     4     5   ar
    13     5     6   ar
    14     5     7   ar
    15     7     8   ar
    16     8     9   ar
    17     9    10    1
    18    10    11    1
    19    10    12    1
    20    12    13    1
    21    13    14   am
    22    14    15    2
    23    21    22    1
    24    22    23    1
    25    23    18    1
    26     6     1   ar
    27    14     8    1
    28     9     4   ar
    29    13    16    1
@<TRIPOS>MOLECULE
*****
 26 29 0 0 0
SMALL
GASTEIGER

@<TRIPOS>ATOM
      1 C          63.8858   87.6786   14.5935 C.ar    1  UNL1        0.1385
      2 C          63.2751   87.8190   13.2307 C.ar    1  UNL1        0.0384
      3 C          63.5174   89.0605   12.4246 C.ar    1  UNL1        0.0203
      4 C          64.3705   90.1616   12.9812 C.ar    1  UNL1        0.0602
      5 C          64.9812   90.0212   14.3440 C.ar    1  UNL1        0.0204
      6 C          64.7389   88.7797   15.1502 C.ar    1  UNL1        0.0384
      7 C          65.7714   91.2641   14.6281 C.ar    1  UNL1        0.0233
      8 C          65.6490   92.1727   13.4409 C.ar    1  UNL1        0.1140
      9 N          64.7832   91.4914   12.4230 N.ar    1  UNL1       -0.3238
     10 C          64.4825   92.1697   11.1195 C.3     1  UNL1        0.1052
     11 C          63.6167   91.4883   10.1016 C.3     1  UNL1        0.0263
     12 C          65.0476   93.5295   10.8337 C.3     1  UNL1        0.1122
     13 N          65.9134   94.2108   11.8516 N.am    1  UNL1       -0.2978
     14 C          66.2141   93.5325   13.1552 C.2     1  UNL1        0.2618
     15 O          67.0800   94.2139   14.1731 O.2     1  UNL1       -0.2686
     16 H          66.2843   95.1033   11.6641 H       1  UNL1        0.1498
     17 O          63.6435   86.4371   15.3997 O.3     1  UNL1       -0.4791
     18 N          63.0220   82.4926   13.3250 N.3     1  UNL1       -0.2737
     19 C          64.1748   83.3704   12.9373 C.3     1  UNL1        0.0758
     20 C          64.3820   84.6853   13.6289 C.3     1  UNL1        0.0609
     21 C          63.4363   85.1223   14.7082 C.3     1  UNL1        0.1687
     22 C          62.2835   84.2443   15.0959 C.3     1  UNL1        0.0609
     23 C          62.0764   82.9295   14.4043 C.3     1  UNL1        0.0758
     24 C          63.0903   81.0514   11.1644 C.3     1  UNL1        0.0173
     25 C          62.8149   81.1777   12.6334 C.3     1  UNL1        0.0576
     26 C          62.3323   79.9891   13.4110 C.3     1  UNL1        0.0173
@<TRIPOS>BOND
     1    24    25    1
     2    25    26    1
     3    25    18    1
     4    18    19    1
     5    19    20    1
     6    20    21    1
     7    21    17    1
     8    17     1    1
     9     1     2   ar
    10     2     3   ar
    11     3     4   ar
    12     4     5   ar
    13     5     6   ar
    14     5     7   ar
    15     7     8   ar
    16     8     9   ar
    17     9    10    1
    18    10    11    1
    19    10    12    1
    20    12    13    1
    21    13    14   am
    22    14    15    2
    23    21    22    1
    24    22    23    1
    25    23    18    1
    26     6     1   ar
    27    14     8    1
    28     9     4   ar
    29    13    16    1
@<TRIPOS>MOLECULE
*****
 26 29 0 0 0
SMALL
GASTEIGER

@<TRIPOS>ATOM
      1 C          62.6183   88.8286   11.4776 C.ar    1  UNL1        0.1385
      2 C          63.1318   88.7673   12.8856 C.ar    1  UNL1        0.0384
      3 C          64.0038   89.8672   13.4145 C.ar    1  UNL1        0.0203
      4 C          64.3623   91.0284   12.5353 C.ar    1  UNL1        0.0602
      5 C          63.8488   91.0898   11.1273 C.ar    1  UNL1        0.0204
      6 C          62.9768   89.9899   10.5985 C.ar    1  UNL1        0.0384
      7 C          64.3659   92.3503   10.4999 C.ar    1  UNL1        0.0233
      8 C          65.1989   93.0681   11.5202 C.ar    1  UNL1        0.1140
      9 N          65.1968   92.2511   12.7781 N.ar    1  UNL1       -0.3238
     10 C          65.9548   92.7260   13.9821 C.3     1  UNL1        0.1052
     11 C          65.9526   91.9091   15.2401 C.3     1  UNL1        0.0263
     12 C          66.7151   94.0179   13.9282 C.3     1  UNL1        0.1122
     13 N          66.7173   94.8349   12.6702 N.am    1  UNL1       -0.2978
     14 C          65.9592   94.3599   11.4662 C.2     1  UNL1        0.2618
     15 O          65.9614   95.1770   10.2081 O.2     1  UNL1       -0.2686
     16 H          67.2162   95.6828   12.6348 H       1  UNL1        0.1498
     17 O          61.7462   87.7287   10.9487 O.3     1  UNL1       -0.4791
     18 N          63.0116   83.4350   11.4103 N.3     1  UNL1       -0.2737
     19 C          62.6523   84.2452   12.6204 C.3     1  UNL1        0.0758
     20 C          62.2305   85.6765   12.4666 C.3     1  UNL1        0.0609
     21 C          62.1680   86.2975   11.1026 C.3     1  UNL1        0.1687
     22 C          62.5272   85.4872    9.8924 C.3     1  UNL1        0.0609
     23 C          62.9490   84.0560   10.0463 C.3     1  UNL1        0.0758
     24 C          63.3632   81.0710   10.3915 C.3     1  UNL1        0.0173
     25 C          63.4333   82.0038   11.5641 C.3     1  UNL1        0.0576
     26 C          63.9253   81.5053   12.8906 C.3     1  UNL1        0.0173
@<TRIPOS>BOND
     1    24    25    1
     2    25    26    1
     3    25    18    1
     4    18    19    1
     5    19    20    1
     6    20    21    1
     7    21    17    1
     8    17     1    1
     9     1     2   ar
    10     2     3   ar
    11     3     4   ar
    12     4     5   ar
    13     5     6   ar
    14     5     7   ar
    15     7     8   ar
    16     8     9   ar
    17     9    10    1
    18    10    11    1
    19    10    12    1
    20    12    13    1
    21    13    14   am
    22    14    15    2
    23    21    22    1
    24    22    23    1
    25    23    18    1
    26     6     1   ar
    27    14     8    1
    28     9     4   ar
    29    13    16    1
@<TRIPOS>MOLECULE
*****
 26 29 0 0 0
SMALL
GASTEIGER

@<TRIPOS>ATOM
      1 C          62.1496   89.0713   11.4527 C.ar    1  UNL1        0.1385
      2 C          62.4743   90.0586   10.3712 C.ar    1  UNL1        0.0384
      3 C          63.4450   91.1706   10.6377 C.ar    1  UNL1        0.0203
      4 C          64.0911   91.2953   11.9857 C.ar    1  UNL1        0.0602
      5 C          63.7664   90.3080   13.0672 C.ar    1  UNL1        0.0204
      6 C          62.7956   89.1960   12.8007 C.ar    1  UNL1        0.0384
      7 C          64.5538   90.6820   14.2879 C.ar    1  UNL1        0.0233
      8 C          65.3652   91.9005   13.9608 C.ar    1  UNL1        0.1140
      9 N          65.0792   92.2795   12.5379 N.ar    1  UNL1       -0.3238
     10 C          65.7555   93.4719   11.9290 C.3     1  UNL1        0.1052
     11 C          65.4696   93.8509   10.5062 C.3     1  UNL1        0.0263
     12 C          66.7178   94.2852   12.7429 C.3     1  UNL1        0.1122
     13 N          67.0038   93.9061   14.1658 N.am    1  UNL1       -0.2978
     14 C          66.3275   92.7137   14.7747 C.2     1  UNL1        0.2618
     15 O          66.6135   92.3346   16.1976 O.2     1  UNL1       -0.2686
     16 H          67.6354   94.4399   14.7000 H       1  UNL1        0.1498
     17 O          61.1787   87.9592   11.1863 O.3     1  UNL1       -0.4791
     18 N          61.6133   85.4306    7.4894 N.3     1  UNL1       -0.2737
     19 C          60.3230   86.1454    7.7617 C.3     1  UNL1        0.0758
     20 C          60.1782   86.9883    8.9940 C.3     1  UNL1        0.0609
     21 C          61.3236   87.1164    9.9540 C.3     1  UNL1        0.1687
     22 C          62.6139   86.4015    9.6817 C.3     1  UNL1        0.0609
     23 C          62.7587   85.5586    8.4494 C.3     1  UNL1        0.0758
     24 C          63.0510   84.5872    5.4965 C.3     1  UNL1        0.0173
     25 C          61.7581   84.5878    6.2571 C.3     1  UNL1        0.0576
     26 C          60.6101   83.7454    5.7854 C.3     1  UNL1        0.0173
@<TRIPOS>BOND
     1    24    25    1
     2    25    26    1
     3    25    18    1
     4    18    19    1
     5    19    20    1
     6    20    21    1
     7    21    17    1
     8    17     1    1
     9     1     2   ar
    10     2     3   ar
    11     3     4   ar
    12     4     5   ar
    13     5     6   ar
    14     5     7   ar
    15     7     8   ar
    16     8     9   ar
    17     9    10    1
    18    10    11    1
    19    10    12    1
    20    12    13    1
    21    13    14   am
    22    14    15    2
    23    21    22    1
    24    22    23    1
    25    23    18    1
    26     6     1   ar
    27    14     8    1
    28     9     4   ar
    29    13    16    1
@<TRIPOS>MOLECULE
*****
 26 29 0 0 0
SMALL
GASTEIGER

@<TRIPOS>ATOM
      1 C          63.5880   89.8688   13.2258 C.ar    1  UNL1        0.1385
      2 C          62.9342   89.4486   11.9429 C.ar    1  UNL1        0.0384
      3 C          62.7512   87.9917   11.6365 C.ar    1  UNL1        0.0203
      4 C          63.2220   86.9550   12.6130 C.ar    1  UNL1        0.0602
      5 C          63.8759   87.3753   13.8959 C.ar    1  UNL1        0.0204
      6 C          64.0589   88.8322   14.2023 C.ar    1  UNL1        0.0384
      7 C          64.2359   86.1359   14.6603 C.ar    1  UNL1        0.0233
      8 C          63.8046   84.9497   13.8498 C.ar    1  UNL1        0.1140
      9 N          63.1780   85.4559   12.5845 N.ar    1  UNL1       -0.3238
     10 C          62.6482   84.4865   11.5699 C.3     1  UNL1        0.1052
     11 C          62.0216   84.9927   10.3046 C.3     1  UNL1        0.0263
     12 C          62.7451   83.0108   11.8206 C.3     1  UNL1        0.1122
     13 N          63.3718   82.5045   13.0859 N.am    1  UNL1       -0.2978
     14 C          63.9016   83.4740   14.1005 C.2     1  UNL1        0.2618
     15 O          64.5283   82.9677   15.3659 O.2     1  UNL1       -0.2686
     16 H          63.4354   81.5360   13.2504 H       1  UNL1        0.1498
     17 O          63.7711   91.3258   13.5322 O.3     1  UNL1       -0.4791
     18 N          67.6133   92.7721   15.3749 N.3     1  UNL1       -0.2737
     19 C          66.4075   92.5434   16.2372 C.3     1  UNL1        0.0758
     20 C          65.1267   92.0612   15.6230 C.3     1  UNL1        0.0609
     21 C          65.0518   91.8079   14.1464 C.3     1  UNL1        0.1687
     22 C          66.2577   92.0367   13.2841 C.3     1  UNL1        0.0609
     23 C          67.5384   92.5188   13.8984 C.3     1  UNL1        0.0758
     24 C          69.8617   92.2696   16.5757 C.3     1  UNL1        0.0173
     25 C          68.8940   93.2542   15.9892 C.3     1  UNL1        0.0576
     26 C          69.2070   94.7210   16.0168 C.3     1  UNL1        0.0173
@<TRIPOS>BOND
     1    24    25    1
     2    25    26    1
     3    25    18    1
     4    18    19    1
     5    19    20    1
     6    20    21    1
     7    21    17    1
     8    17     1    1
     9     1     2   ar
    10     2     3   ar
    11     3     4   ar
    12     4     5   ar
    13     5     6   ar
    14     5     7   ar
    15     7     8   ar
    16     8     9   ar
    17     9    10    1
    18    10    11    1
    19    10    12    1
    20    12    13    1
    21    13    14   am
    22    14    15    2
    23    21    22    1
    24    22    23    1
    25    23    18    1
    26     6     1   ar
    27    14     8    1
    28     9     4   ar
    29    13    16    1
@<TRIPOS>MOLECULE
*****
 26 29 0 0 0
SMALL
GASTEIGER

@<TRIPOS>ATOM
      1 C          64.4353   90.6928   13.6929 C.ar    1  UNL1        0.1385
      2 C          64.8973   89.6800   14.6983 C.ar    1  UNL1        0.0384
      3 C          64.5612   88.2302   14.5112 C.ar    1  UNL1        0.0203
      4 C          63.7632   87.7932   13.3186 C.ar    1  UNL1        0.0602
      5 C          63.3012   88.8059   12.3132 C.ar    1  UNL1        0.0204
      6 C          63.6372   90.2557   12.5004 C.ar    1  UNL1        0.0384
      7 C          62.5357   88.0828   11.2450 C.ar    1  UNL1        0.0233
      8 C          62.5246   86.6231   11.5902 C.ar    1  UNL1        0.1140
      9 N          63.2832   86.4440   12.8718 N.ar    1  UNL1       -0.3238
     10 C          63.4389   85.0758   13.4663 C.3     1  UNL1        0.1052
     11 C          64.1975   84.8967   14.7478 C.3     1  UNL1        0.0263
     12 C          62.8360   83.8865   12.7792 C.3     1  UNL1        0.1122
     13 N          62.0774   84.0655   11.4976 N.am    1  UNL1       -0.2978
     14 C          61.9217   85.4338   10.9031 C.2     1  UNL1        0.2618
     15 O          61.1630   85.6128    9.6215 O.2     1  UNL1       -0.2686
     16 H          61.6817   83.2849   11.0467 H       1  UNL1        0.1498
     17 O          64.7713   92.1427   13.8800 O.3     1  UNL1       -0.4791
     18 N          66.5823   94.4879   10.4933 N.3     1  UNL1       -0.2737
     19 C          65.8831   93.1899   10.2170 C.3     1  UNL1        0.0758
     20 C          65.2794   92.4081   11.3460 C.3     1  UNL1        0.0609
     21 C          65.3750   92.9244   12.7511 C.3     1  UNL1        0.1687
     22 C          66.0743   94.2224   13.0273 C.3     1  UNL1        0.0609
     23 C          66.6780   95.0041   11.8984 C.3     1  UNL1        0.0758
     24 C          67.3301   96.7585    9.4758 C.3     1  UNL1        0.0173
     25 C          67.1860   95.2696    9.3643 C.3     1  UNL1        0.0576
     26 C          67.6456   94.5624    8.1239 C.3     1  UNL1        0.0173
@<TRIPOS>BOND
     1    24    25    1
     2    25    26    1
     3    25    18    1
     4    18    19    1
     5    19    20    1
     6    20    21    1
     7    21    17    1
     8    17     1    1
     9     1     2   ar
    10     2     3   ar
    11     3     4   ar
    12     4     5   ar
    13     5     6   ar
    14     5     7   ar
    15     7     8   ar
    16     8     9   ar
    17     9    10    1
    18    10    11    1
    19    10    12    1
    20    12    13    1
    21    13    14   am
    22    14    15    2
    23    21    22    1
    24    22    23    1
    25    23    18    1
    26     6     1   ar
    27    14     8    1
    28     9     4   ar
    29    13    16    1
@<TRIPOS>MOLECULE
*****
 26 29 0 0 0
SMALL
GASTEIGER

@<TRIPOS>ATOM
      1 C          62.8060   90.0848   13.1970 C.ar    1  UNL1        0.1385
      2 C          63.4567   88.7354   13.1205 C.ar    1  UNL1        0.0384
      3 C          63.0962   87.7907   12.0126 C.ar    1  UNL1        0.0203
      4 C          62.0850   88.1953   10.9812 C.ar    1  UNL1        0.0602
      5 C          61.4343   89.5446   11.0577 C.ar    1  UNL1        0.0204
      6 C          61.7948   90.4894   12.1656 C.ar    1  UNL1        0.0384
      7 C          60.4801   89.6650    9.9066 C.ar    1  UNL1        0.0233
      8 C          60.5410   88.3900    9.1187 C.ar    1  UNL1        0.1140
      9 N          61.5329   87.4817    9.7828 N.ar    1  UNL1       -0.3238
     10 C          61.8052   86.1222    9.2106 C.3     1  UNL1        0.1052
     11 C          62.7971   85.2139    9.8747 C.3     1  UNL1        0.0263
     12 C          61.0856   85.6710    7.9742 C.3     1  UNL1        0.1122
     13 N          60.0937   86.5793    7.3102 N.am    1  UNL1       -0.2978
     14 C          59.8214   87.9389    7.8824 C.2     1  UNL1        0.2618
     15 O          58.8294   88.8472    7.2183 O.2     1  UNL1       -0.2686
     16 H          59.6214   86.2832    6.4987 H       1  UNL1        0.1498
     17 O          63.1665   91.0296   14.3049 O.3     1  UNL1       -0.4791
     18 N          67.4203   92.4173   14.7836 N.3     1  UNL1       -0.2737
     19 C          66.5078   92.3722   15.9732 C.3     1  UNL1        0.0758
     20 C          65.0898   91.9096   15.8137 C.3     1  UNL1        0.0609
     21 C          64.5844   91.4922   14.4645 C.3     1  UNL1        0.1687
     22 C          65.4971   91.5373   13.2748 C.3     1  UNL1        0.0609
     23 C          66.9150   91.9998   13.4344 C.3     1  UNL1        0.0758
     24 C          69.9233   92.2764   14.1015 C.3     1  UNL1        0.0173
     25 C          68.8383   92.8799   14.9432 C.3     1  UNL1        0.0576
     26 C          69.1712   93.9460   15.9445 C.3     1  UNL1        0.0173
@<TRIPOS>BOND
     1    24    25    1
     2    25    26    1
     3    25    18    1
     4    18    19    1
     5    19    20    1
     6    20    21    1
     7    21    17    1
     8    17     1    1
     9     1     2   ar
    10     2     3   ar
    11     3     4   ar
    12     4     5   ar
    13     5     6   ar
    14     5     7   ar
    15     7     8   ar
    16     8     9   ar
    17     9    10    1
    18    10    11    1
    19    10    12    1
    20    12    13    1
    21    13    14   am
    22    14    15    2
    23    21    22    1
    24    22    23    1
    25    23    18    1
    26     6     1   ar
    27    14     8    1
    28     9     4   ar
    29    13    16    1
@<TRIPOS>MOLECULE
*****
 26 29 0 0 0
SMALL
GASTEIGER

@<TRIPOS>ATOM
      1 C          61.4934   89.5470   11.2337 C.ar    1  UNL1        0.1385
      2 C          61.6866   89.3934   12.7132 C.ar    1  UNL1        0.0384
      3 C          62.7885   90.1379   13.4070 C.ar    1  UNL1        0.0203
      4 C          63.6972   91.0361   12.6212 C.ar    1  UNL1        0.0602
      5 C          63.5041   91.1898   11.1417 C.ar    1  UNL1        0.0204
      6 C          62.4022   90.4452   10.4479 C.ar    1  UNL1        0.0384
      7 C          64.5484   92.1393   10.6340 C.ar    1  UNL1        0.0233
      8 C          65.3871   92.5725   11.7998 C.ar    1  UNL1        0.1140
      9 N          64.8610   91.8907   13.0280 N.ar    1  UNL1       -0.3238
     10 C          65.5097   92.1361   14.3579 C.3     1  UNL1        0.1052
     11 C          64.9836   91.4544   15.5861 C.3     1  UNL1        0.0263
     12 C          66.6843   93.0633   14.4598 C.3     1  UNL1        0.1122
     13 N          67.2104   93.7451   13.2316 N.am    1  UNL1       -0.2978
     14 C          66.5617   93.4997   11.9016 C.2     1  UNL1        0.2618
     15 O          67.0878   94.1815   10.6733 O.2     1  UNL1       -0.2686
     16 H          67.9814   94.3537   13.2985 H       1  UNL1        0.1498
     17 O          60.3914   88.8024   10.5399 O.3     1  UNL1       -0.4791
     18 N          61.3812   85.6809    7.4533 N.3     1  UNL1       -0.2737
     19 C          60.0599   86.3894    7.4066 C.3     1  UNL1        0.0758
     20 C          59.7299   87.4299    8.4354 C.3     1  UNL1        0.0609
     21 C          60.7213   87.7619    9.5110 C.3     1  UNL1        0.1687
     22 C          62.0427   87.0534    9.5577 C.3     1  UNL1        0.0609
     23 C          62.3726   86.0130    8.5289 C.3     1  UNL1        0.0758
     24 C          63.1258   84.4716    5.9555 C.3     1  UNL1        0.0173
     25 C          61.7111   84.6405    6.4245 C.3     1  UNL1        0.0576
     26 C          60.6262   83.7688    5.8647 C.3     1  UNL1        0.0173
@<TRIPOS>BOND
     1    24    25    1
     2    25    26    1
     3    25    18    1
     4    18    19    1
     5    19    20    1
     6    20    21    1
     7    21    17    1
     8    17     1    1
     9     1     2   ar
    10     2     3   ar
    11     3     4   ar
    12     4     5   ar
    13     5     6   ar
    14     5     7   ar
    15     7     8   ar
    16     8     9   ar
    17     9    10    1
    18    10    11    1
    19    10    12    1
    20    12    13    1
    21    13    14   am
    22    14    15    2
    23    21    22    1
    24    22    23    1
    25    23    18    1
    26     6     1   ar
    27    14     8    1
    28     9     4   ar
    29    13    16    1
