@<TRIPOS>MOLECULE
*****
 16 17 0 0 0
SMALL
GASTEIGER

@<TRIPOS>ATOM
      1 C          64.6842   91.2761   14.6914 C.ar    1  UNL1        0.1063
      2 C          65.7156   92.1705   15.3129 C.ar    1  UNL1        0.0199
      3 C          66.4926   93.1268   14.4574 C.ar    1  UNL1        0.0210
      4 C          66.2381   93.1888   12.9805 C.ar    1  UNL1        0.0893
      5 N          66.8437   94.0242   11.8918 N.ar    1  UNL1       -0.2245
      6 C          66.1866   93.6462   10.5974 C.ar    1  UNL1        0.1567
      7 N          66.4882   94.2342    9.2508 N.pl3   1  UNL1       -0.3375
      8 S          65.1748   92.5771   10.8862 S.2     1  UNL1       -0.0519
      9 C          65.2067   92.2944   12.3590 C.ar    1  UNL1        0.0510
     10 C          64.4298   91.3381   13.2145 C.ar    1  UNL1        0.0264
     11 H          67.1735   94.9354    9.1621 H       1  UNL1        0.1442
     12 H          66.0010   93.9187    8.4556 H       1  UNL1        0.1442
     13 C          63.1303   89.3635   16.4023 C.3     1  UNL1        0.1816
     14 S          63.9073   90.3198   15.5469 S.O2    1  UNL1        0.0105
     15 O          64.3585   89.1800   14.6825 O.2     1  UNL1       -0.1686
     16 O          63.4560   91.4597   16.4112 O.2     1  UNL1       -0.1686
@<TRIPOS>BOND
     1    13    14    1
     2    14    15    2
     3    14    16    2
     4    14     1    1
     5     1     2   ar
     6     2     3   ar
     7     3     4   ar
     8     4     5   ar
     9     5     6   ar
    10     6     7    1
    11     6     8   ar
    12     8     9   ar
    13     9    10   ar
    14    10     1   ar
    15     9     4   ar
    16     7    11    1
    17     7    12    1
@<TRIPOS>MOLECULE
*****
 16 17 0 0 0
SMALL
GASTEIGER

@<TRIPOS>ATOM
      1 C          63.8751   90.2653   14.3389 C.ar    1  UNL1        0.1063
      2 C          63.1439   90.0077   13.0548 C.ar    1  UNL1        0.0199
      3 C          63.5061   90.7759   11.8184 C.ar    1  UNL1        0.0210
      4 C          64.5994   91.8018   11.8661 C.ar    1  UNL1        0.0893
      5 N          65.1726   92.7072   10.8166 N.ar    1  UNL1       -0.2245
      6 C          66.2581   93.5245   11.4521 C.ar    1  UNL1        0.1567
      7 N          67.0984   94.5603   10.7658 N.pl3   1  UNL1       -0.3375
      8 S          66.3557   93.1241   12.8944 S.2     1  UNL1       -0.0519
      9 C          65.3305   92.0594   13.1502 C.ar    1  UNL1        0.0510
     10 C          64.9684   91.2912   14.3866 C.ar    1  UNL1        0.0264
     11 H          66.9586   94.7538    9.8106 H       1  UNL1        0.1442
     12 H          67.7898   95.0467   11.2704 H       1  UNL1        0.1442
     13 C          63.1508   88.7289   16.8117 C.3     1  UNL1        0.1816
     14 S          63.5129   89.4971   15.5753 S.O2    1  UNL1        0.0105
     15 O          63.8112   88.2109   14.8635 O.2     1  UNL1       -0.1686
     16 O          63.2147   90.7834   16.2871 O.2     1  UNL1       -0.1686
@<TRIPOS>BOND
     1    13    14    1
     2    14    15    2
     3    14    16    2
     4    14     1    1
     5     1     2   ar
     6     2     3   ar
     7     3     4   ar
     8     4     5   ar
     9     5     6   ar
    10     6     7    1
    11     6     8   ar
    12     8     9   ar
    13     9    10   ar
    14    10     1   ar
    15     9     4   ar
    16     7    11    1
    17     7    12    1
@<TRIPOS>MOLECULE
*****
 16 17 0 0 0
SMALL
GASTEIGER

@<TRIPOS>ATOM
      1 C          65.3948   92.5118   11.1820 C.ar    1  UNL1        0.1063
      2 C          64.2439   91.8808   10.4560 C.ar    1  UNL1        0.0199
      3 C          63.3064   90.9664   11.1874 C.ar    1  UNL1        0.0210
      4 C          63.5199   90.6829   12.6447 C.ar    1  UNL1        0.0893
      5 N          62.7667   89.8302   13.6223 N.ar    1  UNL1       -0.2245
      6 C          63.4522   89.9341   14.9524 C.ar    1  UNL1        0.1567
      7 N          63.0342   89.2425   16.2162 N.pl3   1  UNL1       -0.3375
      8 S          64.6290   90.8512   14.7970 S.2     1  UNL1       -0.0519
      9 C          64.6708   91.3139   13.3707 C.ar    1  UNL1        0.0510
     10 C          65.6083   92.2284   12.6394 C.ar    1  UNL1        0.0264
     11 H          62.2428   88.6569   16.2182 H       1  UNL1        0.1442
     12 H          63.5512   89.3742   17.0436 H       1  UNL1        0.1442
     13 C          67.2697   94.3408    9.7192 C.3     1  UNL1        0.1816
     14 S          66.3323   93.4263   10.4506 S.O2    1  UNL1        0.0105
     15 O          65.4061   94.5786   10.7042 O.2     1  UNL1       -0.1686
     16 O          67.2585   92.2740   10.1970 O.2     1  UNL1       -0.1686
@<TRIPOS>BOND
     1    13    14    1
     2    14    15    2
     3    14    16    2
     4    14     1    1
     5     1     2   ar
     6     2     3   ar
     7     3     4   ar
     8     4     5   ar
     9     5     6   ar
    10     6     7    1
    11     6     8   ar
    12     8     9   ar
    13     9    10   ar
    14    10     1   ar
    15     9     4   ar
    16     7    11    1
    17     7    12    1
@<TRIPOS>MOLECULE
*****
 16 17 0 0 0
SMALL
GASTEIGER

@<TRIPOS>ATOM
      1 C          65.3754   91.5940   13.7197 C.ar    1  UNL1        0.1063
      2 C          64.9910   90.3408   14.4488 C.ar    1  UNL1        0.0199
      3 C          63.9692   89.4140   13.8600 C.ar    1  UNL1        0.0210
      4 C          63.3317   89.7403   12.5420 C.ar    1  UNL1        0.0893
      5 N          62.3018   89.0234   11.7203 N.ar    1  UNL1       -0.2245
      6 C          62.0497   89.8335   10.4832 C.ar    1  UNL1        0.1567
      7 N          61.0917   89.4868    9.3823 N.pl3   1  UNL1       -0.3375
      8 S          62.9238   91.0512   10.5405 S.2     1  UNL1       -0.0519
      9 C          63.7161   90.9936   11.8129 C.ar    1  UNL1        0.0510
     10 C          64.7380   91.9204   12.4018 C.ar    1  UNL1        0.0264
     11 H          60.5588   88.6607    9.4355 H       1  UNL1        0.1442
     12 H          60.9958   90.0854    8.6066 H       1  UNL1        0.1442
     13 C          67.4192   93.4477   14.8975 C.3     1  UNL1        0.1816
     14 S          66.3973   92.5209   14.3086 S.O2    1  UNL1        0.0105
     15 O          67.2247   92.3998   13.0633 O.2     1  UNL1       -0.1686
     16 O          65.5699   92.6419   15.5539 O.2     1  UNL1       -0.1686
@<TRIPOS>BOND
     1    13    14    1
     2    14    15    2
     3    14    16    2
     4    14     1    1
     5     1     2   ar
     6     2     3   ar
     7     3     4   ar
     8     4     5   ar
     9     5     6   ar
    10     6     7    1
    11     6     8   ar
    12     8     9   ar
    13     9    10   ar
    14    10     1   ar
    15     9     4   ar
    16     7    11    1
    17     7    12    1
@<TRIPOS>MOLECULE
*****
 16 17 0 0 0
SMALL
GASTEIGER

@<TRIPOS>ATOM
      1 C          63.4072   85.3461   15.6866 C.ar    1  UNL1        0.1063
      2 C          64.6849   85.3541   14.9009 C.ar    1  UNL1        0.0199
      3 C          65.0005   84.2205   13.9706 C.ar    1  UNL1        0.0210
      4 C          64.0383   83.0789   13.8260 C.ar    1  UNL1        0.0893
      5 N          64.0781   81.8321   12.9930 N.ar    1  UNL1       -0.2245
      6 C          62.8249   81.0535   13.2638 C.ar    1  UNL1        0.1567
      7 N          62.4516   79.7399   12.6432 N.pl3   1  UNL1       -0.3375
      8 S          62.0106   81.8191   14.2642 S.2     1  UNL1       -0.0519
      9 C          62.7606   83.0709   14.6116 C.ar    1  UNL1        0.0510
     10 C          62.4450   84.2045   15.5419 C.ar    1  UNL1        0.0264
     11 H          63.0553   79.3134   11.9930 H       1  UNL1        0.1442
     12 H          61.6028   79.3042   12.8861 H       1  UNL1        0.1442
     13 C          62.7761   87.6132   17.5471 C.3     1  UNL1        0.1816
     14 S          63.0917   86.4796   16.6169 S.O2    1  UNL1        0.0105
     15 O          62.3977   85.5259   17.5436 O.2     1  UNL1       -0.1686
     16 O          63.7856   87.4334   15.6901 O.2     1  UNL1       -0.1686
@<TRIPOS>BOND
     1    13    14    1
     2    14    15    2
     3    14    16    2
     4    14     1    1
     5     1     2   ar
     6     2     3   ar
     7     3     4   ar
     8     4     5   ar
     9     5     6   ar
    10     6     7    1
    11     6     8   ar
    12     8     9   ar
    13     9    10   ar
    14    10     1   ar
    15     9     4   ar
    16     7    11    1
    17     7    12    1
@<TRIPOS>MOLECULE
*****
 16 17 0 0 0
SMALL
GASTEIGER

@<TRIPOS>ATOM
      1 C          63.2720   90.8461   11.8048 C.ar    1  UNL1        0.1063
      2 C          63.8291   91.6400   10.6605 C.ar    1  UNL1        0.0199
      3 C          65.0946   92.4253   10.8382 C.ar    1  UNL1        0.0210
      4 C          65.8032   92.4168   12.1602 C.ar    1  UNL1        0.0893
      5 N          67.0593   93.0886   12.6302 N.ar    1  UNL1       -0.2245
      6 C          67.2786   92.7099   14.0649 C.ar    1  UNL1        0.1567
      7 N          68.4185   93.1585   14.9308 N.pl3   1  UNL1       -0.3375
      8 S          66.1581   91.8041   14.4818 S.2     1  UNL1       -0.0519
      9 C          65.2462   91.6229   13.3046 C.ar    1  UNL1        0.0510
     10 C          63.9806   90.8376   13.1269 C.ar    1  UNL1        0.0264
     11 H          69.1091   93.7568   14.5645 H       1  UNL1        0.1442
     12 H          68.4759   92.8544   15.8654 H       1  UNL1        0.1442
     13 C          60.7409   89.2755   11.4494 C.3     1  UNL1        0.1816
     14 S          62.0065   90.0608   11.6271 S.O2    1  UNL1        0.0105
     15 O          61.9408   90.4914   10.1917 O.2     1  UNL1       -0.1686
     16 O          62.0721   89.6303   13.0625 O.2     1  UNL1       -0.1686
@<TRIPOS>BOND
     1    13    14    1
     2    14    15    2
     3    14    16    2
     4    14     1    1
     5     1     2   ar
     6     2     3   ar
     7     3     4   ar
     8     4     5   ar
     9     5     6   ar
    10     6     7    1
    11     6     8   ar
    12     8     9   ar
    13     9    10   ar
    14    10     1   ar
    15     9     4   ar
    16     7    11    1
    17     7    12    1
@<TRIPOS>MOLECULE
*****
 16 17 0 0 0
SMALL
GASTEIGER

@<TRIPOS>ATOM
      1 C          66.6027   92.2758   14.0269 C.ar    1  UNL1        0.1063
      2 C          66.5085   92.9440   12.6874 C.ar    1  UNL1        0.0199
      3 C          65.3950   92.5872   11.7478 C.ar    1  UNL1        0.0210
      4 C          64.3756   91.5622   12.1479 C.ar    1  UNL1        0.0893
      5 N          63.1753   91.0099   11.4378 N.ar    1  UNL1       -0.2245
      6 C          62.5277   90.0003   12.3385 C.ar    1  UNL1        0.1567
      7 N          61.2962   89.2025   12.0270 N.pl3   1  UNL1       -0.3375
      8 S          63.3276   89.9286   13.6053 S.2     1  UNL1       -0.0519
      9 C          64.4698   90.8940   13.4875 C.ar    1  UNL1        0.0510
     10 C          65.5833   91.2508   14.4270 C.ar    1  UNL1        0.0264
     11 H          60.8385   89.3205   11.1633 H       1  UNL1        0.1442
     12 H          60.9455   88.5608   12.6862 H       1  UNL1        0.1442
     13 C          68.8298   92.9894   15.9060 C.3     1  UNL1        0.1816
     14 S          67.7162   92.6326   14.9665 S.O2    1  UNL1        0.0105
     15 O          66.7184   92.8582   16.0635 O.2     1  UNL1       -0.1686
     16 O          68.7141   92.4070   13.8695 O.2     1  UNL1       -0.1686
@<TRIPOS>BOND
     1    13    14    1
     2    14    15    2
     3    14    16    2
     4    14     1    1
     5     1     2   ar
     6     2     3   ar
     7     3     4   ar
     8     4     5   ar
     9     5     6   ar
    10     6     7    1
    11     6     8   ar
    12     8     9   ar
    13     9    10   ar
    14    10     1   ar
    15     9     4   ar
    16     7    11    1
    17     7    12    1
@<TRIPOS>MOLECULE
*****
 16 17 0 0 0
SMALL
GASTEIGER

@<TRIPOS>ATOM
      1 C          66.8498   92.4452   14.4926 C.ar    1  UNL1        0.1063
      2 C          65.9048   91.5308   15.2143 C.ar    1  UNL1        0.0199
      3 C          64.7197   90.9577   14.4951 C.ar    1  UNL1        0.0210
      4 C          64.4797   91.2989   13.0543 C.ar    1  UNL1        0.0893
      5 N          63.4052   90.8891   12.0913 N.ar    1  UNL1       -0.2245
      6 C          63.6862   91.5502   10.7744 C.ar    1  UNL1        0.1567
      7 N          62.8634   91.4163    9.5273 N.pl3   1  UNL1       -0.3375
      8 S          64.9343   92.3686   10.9236 S.2     1  UNL1       -0.0519
      9 C          65.4247   92.2133   12.3327 C.ar    1  UNL1        0.0510
     10 C          66.6098   92.7865   13.0519 C.ar    1  UNL1        0.0264
     11 H          62.0562   90.8526    9.5283 H       1  UNL1        0.1442
     12 H          63.1305   91.8921    8.7079 H       1  UNL1        0.1442
     13 C          69.2199   93.5915   15.9310 C.3     1  UNL1        0.1816
     14 S          68.0348   93.0183   15.2118 S.O2    1  UNL1        0.0105
     15 O          68.9229   92.6095   14.0742 O.2     1  UNL1       -0.1686
     16 O          67.1467   93.4272   16.3494 O.2     1  UNL1       -0.1686
@<TRIPOS>BOND
     1    13    14    1
     2    14    15    2
     3    14    16    2
     4    14     1    1
     5     1     2   ar
     6     2     3   ar
     7     3     4   ar
     8     4     5   ar
     9     5     6   ar
    10     6     7    1
    11     6     8   ar
    12     8     9   ar
    13     9    10   ar
    14    10     1   ar
    15     9     4   ar
    16     7    11    1
    17     7    12    1
@<TRIPOS>MOLECULE
*****
 16 17 0 0 0
SMALL
GASTEIGER

@<TRIPOS>ATOM
      1 C          62.3617   86.2504   11.4713 C.ar    1  UNL1        0.1063
      2 C          62.7478   87.6818   11.6992 C.ar    1  UNL1        0.0199
      3 C          62.1620   88.7626   10.8398 C.ar    1  UNL1        0.0210
      4 C          61.1900   88.4121    9.7525 C.ar    1  UNL1        0.0893
      5 N          60.4540   89.2554    8.7539 N.ar    1  UNL1       -0.2245
      6 C          59.6129   88.3451    7.9088 C.ar    1  UNL1        0.1567
      7 N          58.7135   88.7668    6.7848 N.pl3   1  UNL1       -0.3375
      8 S          59.8292   86.9393    8.3851 S.2     1  UNL1       -0.0519
      9 C          60.8039   86.9807    9.5245 C.ar    1  UNL1        0.0510
     10 C          61.3897   85.8999   10.3840 C.ar    1  UNL1        0.0264
     11 H          58.6379   89.7188    6.5455 H       1  UNL1        0.1442
     12 H          58.1989   88.0916    6.2864 H       1  UNL1        0.1442
     13 C          63.5333   84.0888   13.1902 C.3     1  UNL1        0.1816
     14 S          62.9475   85.1696   12.3308 S.O2    1  UNL1        0.0105
     15 O          63.4209   86.2038   13.3086 O.2     1  UNL1       -0.1686
     16 O          62.4740   84.1354   11.3529 O.2     1  UNL1       -0.1686
@<TRIPOS>BOND
     1    13    14    1
     2    14    15    2
     3    14    16    2
     4    14     1    1
     5     1     2   ar
     6     2     3   ar
     7     3     4   ar
     8     4     5   ar
     9     5     6   ar
    10     6     7    1
    11     6     8   ar
    12     8     9   ar
    13     9    10   ar
    14    10     1   ar
    15     9     4   ar
    16     7    11    1
    17     7    12    1
