@<TRIPOS>MOLECULE
*****
 25 27 0 0 0
SMALL
GASTEIGER

@<TRIPOS>ATOM
      1 C          62.8952   83.8558   13.5663 C.ar    1  UNL1        0.2002
      2 N          62.1557   85.0425   13.0233 N.ar    1  UNL1       -0.2150
      3 C          62.2226   85.3623   11.5593 C.ar    1  UNL1        0.0884
      4 C          61.4831   86.5489   11.0162 C.ar    1  UNL1        0.0151
      5 C          61.5501   86.8686    9.5522 C.ar    1  UNL1       -0.0203
      6 C          60.8105   88.0553    9.0091 C.3     1  UNL1        0.0311
      7 C          62.3566   86.0017    8.6313 C.ar    1  UNL1       -0.0040
      8 C          63.0961   84.8151    9.1744 C.ar    1  UNL1        0.0059
      9 C          63.0291   84.4953   10.6383 C.ar    1  UNL1        0.0739
     10 C          63.7686   83.3086   11.1815 C.ar    1  UNL1        0.2643
     11 O          64.5751   82.4417   10.2606 O.2     1  UNL1       -0.2668
     12 N          63.7017   82.9889   12.6454 N.ar    1  UNL1       -0.2669
     13 C          64.4412   81.8022   13.1886 C.3     1  UNL1        0.1363
     14 N          62.8283   83.5360   15.0304 N.pl3   1  UNL1       -0.3039
     15 H          62.9594   82.6102   15.3385 H       1  UNL1        0.1496
     16 C          62.5616   84.6268   16.0249 C.3     1  UNL1        0.0942
     17 C          63.6745   85.5337   16.4597 C.3     1  UNL1        0.0476
     18 C          63.7070   89.8405   15.1559 C.ar    1  UNL1        0.1387
     19 C          63.0976   89.4601   16.4726 C.ar    1  UNL1        0.0366
     20 C          63.0867   88.0245   16.9072 C.ar    1  UNL1       -0.0011
     21 C          63.6853   86.9693   16.0251 C.ar    1  UNL1       -0.0203
     22 C          64.2948   87.3497   14.7083 C.ar    1  UNL1       -0.0011
     23 C          64.3056   88.7853   14.2737 C.ar    1  UNL1        0.0366
     24 C          64.3385   91.6581   13.4101 C.3     1  UNL1        0.2525
     25 O          63.7179   91.2761   14.7212 O.3     1  UNL1       -0.4714
@<TRIPOS>BOND
     1    24    25    1
     2    25    18    1
     3    18    19   ar
     4    19    20   ar
     5    20    21   ar
     6    21    17    1
     7    17    16    1
     8    16    14    1
     9    14     1    1
    10     1     2   ar
    11     2     3   ar
    12     3     4   ar
    13     4     5   ar
    14     5     6    1
    15     5     7   ar
    16     7     8   ar
    17     8     9   ar
    18     9    10   ar
    19    10    11    2
    20    10    12   ar
    21    12    13    1
    22    21    22   ar
    23    22    23   ar
    24    23    18   ar
    25    12     1   ar
    26     9     3   ar
    27    14    15    1
@<TRIPOS>MOLECULE
*****
 25 27 0 0 0
SMALL
GASTEIGER

@<TRIPOS>ATOM
      1 C          60.6999   87.5976   10.5567 C.ar    1  UNL1        0.2002
      2 N          61.3923   86.8926   11.6851 N.ar    1  UNL1       -0.2150
      3 C          62.2639   85.7044   11.4048 C.ar    1  UNL1        0.0884
      4 C          62.9564   84.9994   12.5332 C.ar    1  UNL1        0.0151
      5 C          63.8279   83.8112   12.2529 C.ar    1  UNL1       -0.0203
      6 C          64.5205   83.1061   13.3814 C.3     1  UNL1        0.0311
      7 C          64.0070   83.3280   10.8442 C.ar    1  UNL1       -0.0040
      8 C          63.3145   84.0330    9.7158 C.ar    1  UNL1        0.0059
      9 C          62.4430   85.2212    9.9961 C.ar    1  UNL1        0.0739
     10 C          61.7504   85.9263    8.8676 C.ar    1  UNL1        0.2643
     11 O          61.9295   85.4431    7.4589 O.2     1  UNL1       -0.2668
     12 N          60.8789   87.1145    9.1479 N.ar    1  UNL1       -0.2669
     13 C          60.1864   87.8196    8.0195 C.3     1  UNL1        0.1363
     14 N          59.8283   88.7859   10.8369 N.pl3   1  UNL1       -0.3039
     15 H          58.8640   88.6632   10.9928 H       1  UNL1        0.1496
     16 C          60.4259   90.1610   10.8797 C.3     1  UNL1        0.0942
     17 C          61.7834   90.4074   10.2910 C.3     1  UNL1        0.0476
     18 C          65.1875   91.6847   12.9425 C.ar    1  UNL1        0.1387
     19 C          64.1512   90.7315   13.4594 C.ar    1  UNL1        0.0366
     20 C          63.0165   90.3057   12.5756 C.ar    1  UNL1       -0.0011
     21 C          62.9181   90.8332   11.1749 C.ar    1  UNL1       -0.0203
     22 C          63.9545   91.7864   10.6579 C.ar    1  UNL1       -0.0011
     23 C          65.0892   92.2122   11.5417 C.ar    1  UNL1        0.0366
     24 C          66.5974   93.5691   14.0432 C.3     1  UNL1        0.2525
     25 O          66.3223   92.1106   13.8263 O.3     1  UNL1       -0.4714
@<TRIPOS>BOND
     1    24    25    1
     2    25    18    1
     3    18    19   ar
     4    19    20   ar
     5    20    21   ar
     6    21    17    1
     7    17    16    1
     8    16    14    1
     9    14     1    1
    10     1     2   ar
    11     2     3   ar
    12     3     4   ar
    13     4     5   ar
    14     5     6    1
    15     5     7   ar
    16     7     8   ar
    17     8     9   ar
    18     9    10   ar
    19    10    11    2
    20    10    12   ar
    21    12    13    1
    22    21    22   ar
    23    22    23   ar
    24    23    18   ar
    25    12     1   ar
    26     9     3   ar
    27    14    15    1
@<TRIPOS>MOLECULE
*****
 25 27 0 0 0
SMALL
GASTEIGER

@<TRIPOS>ATOM
      1 C          63.5271   87.3714   13.2410 C.ar    1  UNL1        0.2002
      2 N          62.7079   86.5986   12.2502 N.ar    1  UNL1       -0.2150
      3 C          62.0162   87.3147   11.1282 C.ar    1  UNL1        0.0884
      4 C          61.1970   86.5419   10.1374 C.ar    1  UNL1        0.0151
      5 C          60.5053   87.2579    9.0154 C.ar    1  UNL1       -0.0203
      6 C          59.6861   86.4851    8.0245 C.3     1  UNL1        0.0311
      7 C          60.6327   88.7467    8.8843 C.ar    1  UNL1       -0.0040
      8 C          61.4519   89.5195    9.8751 C.ar    1  UNL1        0.0059
      9 C          62.1436   88.8035   10.9970 C.ar    1  UNL1        0.0739
     10 C          62.9628   89.5763   11.9879 C.ar    1  UNL1        0.2643
     11 O          63.0903   91.0651   11.8568 O.2     1  UNL1       -0.2668
     12 N          63.6545   88.8602   13.1099 N.ar    1  UNL1       -0.2669
     13 C          64.4737   89.6330   14.1007 C.3     1  UNL1        0.1363
     14 N          64.2189   86.6554   14.3630 N.pl3   1  UNL1       -0.3039
     15 H          64.9267   87.1097   14.8746 H       1  UNL1        0.1496
     16 C          63.8321   85.2472   14.7054 C.3     1  UNL1        0.0942
     17 C          64.7028   84.1044   14.2743 C.3     1  UNL1        0.0476
     18 C          63.3011   81.3016   11.0448 C.ar    1  UNL1        0.1387
     19 C          63.0904   80.9489   12.4874 C.ar    1  UNL1        0.0366
     20 C          63.5577   81.8831   13.5639 C.ar    1  UNL1       -0.0011
     21 C          64.2356   83.1701   13.1977 C.ar    1  UNL1       -0.0203
     22 C          64.4462   83.5229   11.7551 C.ar    1  UNL1       -0.0011
     23 C          63.9789   82.5886   10.6787 C.ar    1  UNL1        0.0366
     24 C          62.7721   78.8917   10.2306 C.3     1  UNL1        0.2525
     25 O          62.8338   80.3673    9.9683 O.3     1  UNL1       -0.4714
@<TRIPOS>BOND
     1    24    25    1
     2    25    18    1
     3    18    19   ar
     4    19    20   ar
     5    20    21   ar
     6    21    17    1
     7    17    16    1
     8    16    14    1
     9    14     1    1
    10     1     2   ar
    11     2     3   ar
    12     3     4   ar
    13     4     5   ar
    14     5     6    1
    15     5     7   ar
    16     7     8   ar
    17     8     9   ar
    18     9    10   ar
    19    10    11    2
    20    10    12   ar
    21    12    13    1
    22    21    22   ar
    23    22    23   ar
    24    23    18   ar
    25    12     1   ar
    26     9     3   ar
    27    14    15    1
@<TRIPOS>MOLECULE
*****
 25 27 0 0 0
SMALL
GASTEIGER

@<TRIPOS>ATOM
      1 C          61.3632   90.3403   10.6175 C.ar    1  UNL1        0.2002
      2 N          62.5493   91.1121   10.1199 N.ar    1  UNL1       -0.2150
      3 C          63.6814   91.4305   11.0511 C.ar    1  UNL1        0.0884
      4 C          64.8674   92.2022   10.5535 C.ar    1  UNL1        0.0151
      5 C          65.9994   92.5206   11.4848 C.ar    1  UNL1       -0.0203
      6 C          67.1855   93.2924   10.9872 C.3     1  UNL1        0.0311
      7 C          65.9454   92.0671   12.9135 C.ar    1  UNL1       -0.0040
      8 C          64.7593   91.2953   13.4111 C.ar    1  UNL1        0.0059
      9 C          63.6273   90.9770   12.4799 C.ar    1  UNL1        0.0739
     10 C          62.4412   90.2052   12.9775 C.ar    1  UNL1        0.2643
     11 O          62.3872   89.7517   14.4063 O.2     1  UNL1       -0.2668
     12 N          61.3092   89.8868   12.0463 N.ar    1  UNL1       -0.2669
     13 C          60.1231   89.1150   12.5439 C.3     1  UNL1        0.1363
     14 N          60.2312   90.0220    9.6863 N.pl3   1  UNL1       -0.3039
     15 H          59.3972   90.5435    9.7289 H       1  UNL1        0.1496
     16 C          60.3697   88.9091    8.6902 C.3     1  UNL1        0.0942
     17 C          60.0082   87.5060    9.0782 C.3     1  UNL1        0.0476
     18 C          63.2469   84.5223   10.0045 C.ar    1  UNL1        0.1387
     19 C          62.4082   85.0869   11.1125 C.ar    1  UNL1        0.0366
     20 C          61.3286   86.0815   10.8037 C.ar    1  UNL1       -0.0011
     21 C          61.0878   86.5114    9.3869 C.ar    1  UNL1       -0.0203
     22 C          61.9265   85.9467    8.2790 C.ar    1  UNL1       -0.0011
     23 C          63.0061   84.9522    8.5877 C.ar    1  UNL1        0.0366
     24 C          64.0024   82.2856   11.0892 C.3     1  UNL1        0.2525
     25 O          64.3265   83.5276   10.3132 O.3     1  UNL1       -0.4714
@<TRIPOS>BOND
     1    24    25    1
     2    25    18    1
     3    18    19   ar
     4    19    20   ar
     5    20    21   ar
     6    21    17    1
     7    17    16    1
     8    16    14    1
     9    14     1    1
    10     1     2   ar
    11     2     3   ar
    12     3     4   ar
    13     4     5   ar
    14     5     6    1
    15     5     7   ar
    16     7     8   ar
    17     8     9   ar
    18     9    10   ar
    19    10    11    2
    20    10    12   ar
    21    12    13    1
    22    21    22   ar
    23    22    23   ar
    24    23    18   ar
    25    12     1   ar
    26     9     3   ar
    27    14    15    1
@<TRIPOS>MOLECULE
*****
 25 27 0 0 0
SMALL
GASTEIGER

@<TRIPOS>ATOM
      1 C          63.2695   87.6988   12.7914 C.ar    1  UNL1        0.2002
      2 N          62.5793   88.5783   11.7914 N.ar    1  UNL1       -0.2150
      3 C          61.8090   87.9658   10.6593 C.ar    1  UNL1        0.0884
      4 C          61.1187   88.8453    9.6594 C.ar    1  UNL1        0.0151
      5 C          60.3485   88.2328    8.5274 C.ar    1  UNL1       -0.0203
      6 C          59.6582   89.1124    7.5273 C.3     1  UNL1        0.0311
      7 C          60.2685   86.7408    8.3953 C.ar    1  UNL1       -0.0040
      8 C          60.9587   85.8613    9.3953 C.ar    1  UNL1        0.0059
      9 C          61.7289   86.4738   10.5273 C.ar    1  UNL1        0.0739
     10 C          62.4192   85.5943   11.5274 C.ar    1  UNL1        0.2643
     11 O          62.3392   84.1022   11.3953 O.2     1  UNL1       -0.2668
     12 N          63.1895   86.2068   12.6594 N.ar    1  UNL1       -0.2669
     13 C          63.8798   85.3272   13.6594 C.3     1  UNL1        0.1363
     14 N          64.0398   88.3113   13.9235 N.pl3   1  UNL1       -0.3039
     15 H          64.8178   87.8407   14.3009 H       1  UNL1        0.1496
     16 C          63.6247   89.6407   14.4805 C.3     1  UNL1        0.0942
     17 C          64.6641   90.6139   14.9519 C.3     1  UNL1        0.0476
     18 C          66.2440   93.7549   12.1433 C.ar    1  UNL1        0.1387
     19 C          65.2974   92.7061   11.6396 C.ar    1  UNL1        0.0366
     20 C          64.7707   91.6592   12.5758 C.ar    1  UNL1       -0.0011
     21 C          65.1908   91.6610   14.0157 C.ar    1  UNL1       -0.0203
     22 C          66.1375   92.7097   14.5195 C.ar    1  UNL1       -0.0011
     23 C          66.6641   93.7567   13.5833 C.ar    1  UNL1        0.0366
     24 C          67.2716   94.4098    9.8487 C.3     1  UNL1        0.2525
     25 O          66.7707   94.8019   11.2071 O.3     1  UNL1       -0.4714
@<TRIPOS>BOND
     1    24    25    1
     2    25    18    1
     3    18    19   ar
     4    19    20   ar
     5    20    21   ar
     6    21    17    1
     7    17    16    1
     8    16    14    1
     9    14     1    1
    10     1     2   ar
    11     2     3   ar
    12     3     4   ar
    13     4     5   ar
    14     5     6    1
    15     5     7   ar
    16     7     8   ar
    17     8     9   ar
    18     9    10   ar
    19    10    11    2
    20    10    12   ar
    21    12    13    1
    22    21    22   ar
    23    22    23   ar
    24    23    18   ar
    25    12     1   ar
    26     9     3   ar
    27    14    15    1
@<TRIPOS>MOLECULE
*****
 25 27 0 0 0
SMALL
GASTEIGER

@<TRIPOS>ATOM
      1 C          64.1836   85.0963   14.5370 C.ar    1  UNL1        0.2002
      2 N          64.6154   86.4630   14.0949 N.ar    1  UNL1       -0.2150
      3 C          64.2147   87.6700   14.8903 C.ar    1  UNL1        0.0884
      4 C          64.6465   89.0368   14.4483 C.ar    1  UNL1        0.0151
      5 C          64.2458   90.2437   15.2436 C.ar    1  UNL1       -0.0203
      6 C          64.6777   91.6105   14.8016 C.3     1  UNL1        0.0311
      7 C          63.4132   90.0839   16.4811 C.ar    1  UNL1       -0.0040
      8 C          62.9814   88.7172   16.9231 C.ar    1  UNL1        0.0059
      9 C          63.3821   87.5102   16.1278 C.ar    1  UNL1        0.0739
     10 C          62.9502   86.1434   16.5698 C.ar    1  UNL1        0.2643
     11 O          62.1177   85.9836   17.8073 O.2     1  UNL1       -0.2668
     12 N          63.3510   84.9365   15.7744 N.ar    1  UNL1       -0.2669
     13 C          62.9191   83.5696   16.2165 C.3     1  UNL1        0.1363
     14 N          64.5843   83.8892   13.7416 N.pl3   1  UNL1       -0.3039
     15 H          65.4586   83.4646   13.8981 H       1  UNL1        0.1496
     16 C          63.6528   83.3291   12.7079 C.3     1  UNL1        0.0942
     17 C          63.9027   83.5916   11.2523 C.3     1  UNL1        0.0476
     18 C          61.2972   86.4955    9.0099 C.ar    1  UNL1        0.1387
     19 C          62.3201   85.6825    8.2734 C.ar    1  UNL1        0.0366
     20 C          63.1886   84.7145    9.0209 C.ar    1  UNL1       -0.0011
     21 C          63.0341   84.5596   10.5049 C.ar    1  UNL1       -0.0203
     22 C          62.0112   85.3726   11.2414 C.ar    1  UNL1       -0.0011
     23 C          61.1427   86.3406   10.4939 C.ar    1  UNL1        0.0366
     24 C          59.0498   87.0574    7.8336 C.3     1  UNL1        0.2525
     25 O          60.4286   87.4635    8.2625 O.3     1  UNL1       -0.4714
@<TRIPOS>BOND
     1    24    25    1
     2    25    18    1
     3    18    19   ar
     4    19    20   ar
     5    20    21   ar
     6    21    17    1
     7    17    16    1
     8    16    14    1
     9    14     1    1
    10     1     2   ar
    11     2     3   ar
    12     3     4   ar
    13     4     5   ar
    14     5     6    1
    15     5     7   ar
    16     7     8   ar
    17     8     9   ar
    18     9    10   ar
    19    10    11    2
    20    10    12   ar
    21    12    13    1
    22    21    22   ar
    23    22    23   ar
    24    23    18   ar
    25    12     1   ar
    26     9     3   ar
    27    14    15    1
@<TRIPOS>MOLECULE
*****
 25 27 0 0 0
SMALL
GASTEIGER

@<TRIPOS>ATOM
      1 C          63.7954   88.0294   13.4335 C.ar    1  UNL1        0.2002
      2 N          63.0655   87.0801   12.5303 N.ar    1  UNL1       -0.2150
      3 C          62.3235   87.6022   11.3357 C.ar    1  UNL1        0.0884
      4 C          61.5936   86.6529   10.4324 C.ar    1  UNL1        0.0151
      5 C          60.8517   87.1750    9.2378 C.ar    1  UNL1       -0.0203
      6 C          60.1217   86.2257    8.3345 C.3     1  UNL1        0.0311
      7 C          60.8398   88.6464    8.9466 C.ar    1  UNL1       -0.0040
      8 C          61.5697   89.5957    9.8499 C.ar    1  UNL1        0.0059
      9 C          62.3116   89.0736   11.0444 C.ar    1  UNL1        0.0739
     10 C          63.0416   90.0229   11.9478 C.ar    1  UNL1        0.2643
     11 O          63.0297   91.4943   11.6565 O.2     1  UNL1       -0.2668
     12 N          63.7835   89.5008   13.1423 N.ar    1  UNL1       -0.2669
     13 C          64.5135   90.4501   14.0457 C.3     1  UNL1        0.1363
     14 N          64.5374   87.5073   14.6282 N.pl3   1  UNL1       -0.3039
     15 H          65.5010   87.6841   14.7251 H       1  UNL1        0.1496
     16 C          63.8111   86.7158   15.6751 C.3     1  UNL1        0.0942
     17 C          64.1769   85.2817   15.9191 C.3     1  UNL1        0.0476
     18 C          63.0880   82.1355   12.8916 C.ar    1  UNL1        0.1387
     19 C          64.2544   83.0449   12.6418 C.ar    1  UNL1        0.0366
     20 C          64.6174   84.0936   13.6510 C.ar    1  UNL1       -0.0011
     21 C          63.8139   84.2329   14.9099 C.ar    1  UNL1       -0.0203
     22 C          62.6474   83.3236   15.1597 C.ar    1  UNL1       -0.0011
     23 C          62.2845   82.2749   14.1506 C.ar    1  UNL1        0.0366
     24 C          63.2892   81.1546   10.4942 C.3     1  UNL1        0.2525
     25 O          62.7250   81.0867   11.8824 O.3     1  UNL1       -0.4714
@<TRIPOS>BOND
     1    24    25    1
     2    25    18    1
     3    18    19   ar
     4    19    20   ar
     5    20    21   ar
     6    21    17    1
     7    17    16    1
     8    16    14    1
     9    14     1    1
    10     1     2   ar
    11     2     3   ar
    12     3     4   ar
    13     4     5   ar
    14     5     6    1
    15     5     7   ar
    16     7     8   ar
    17     8     9   ar
    18     9    10   ar
    19    10    11    2
    20    10    12   ar
    21    12    13    1
    22    21    22   ar
    23    22    23   ar
    24    23    18   ar
    25    12     1   ar
    26     9     3   ar
    27    14    15    1
@<TRIPOS>MOLECULE
*****
 25 27 0 0 0
SMALL
GASTEIGER

@<TRIPOS>ATOM
      1 C          64.0400   87.6455   14.8989 C.ar    1  UNL1        0.2002
      2 N          64.2059   86.5947   13.8415 N.ar    1  UNL1       -0.2150
      3 C          63.6682   85.2125   14.0668 C.ar    1  UNL1        0.0884
      4 C          63.8341   84.1617   13.0094 C.ar    1  UNL1        0.0151
      5 C          63.2964   82.7796   13.2346 C.ar    1  UNL1       -0.0203
      6 C          63.4623   81.7287   12.1772 C.3     1  UNL1        0.0311
      7 C          62.5928   82.4484   14.5173 C.ar    1  UNL1       -0.0040
      8 C          62.4269   83.4993   15.5747 C.ar    1  UNL1        0.0059
      9 C          62.9646   84.8813   15.3494 C.ar    1  UNL1        0.0739
     10 C          62.7987   85.9323   16.4069 C.ar    1  UNL1        0.2643
     11 O          62.0950   85.6011   17.6895 O.2     1  UNL1       -0.2668
     12 N          63.3363   87.3143   16.1816 N.ar    1  UNL1       -0.2669
     13 C          63.1704   88.3653   17.2390 C.3     1  UNL1        0.1363
     14 N          64.5777   89.0277   14.6737 N.pl3   1  UNL1       -0.3039
     15 H          65.5336   89.2136   14.8182 H       1  UNL1        0.1496
     16 C          63.6589   90.1265   14.2282 C.3     1  UNL1        0.0942
     17 C          63.6114   90.5246   12.7828 C.3     1  UNL1        0.0476
     18 C          66.3324   93.7649   11.2509 C.ar    1  UNL1        0.1387
     19 C          65.3875   93.0735   10.3133 C.ar    1  UNL1        0.0366
     20 C          64.4805   91.9934   10.8239 C.ar    1  UNL1       -0.0011
     21 C          64.5185   91.6047   12.2722 C.ar    1  UNL1       -0.0203
     22 C          65.4634   92.2961   13.2098 C.ar    1  UNL1       -0.0011
     23 C          66.3703   93.3761   12.6991 C.ar    1  UNL1        0.0366
     24 C          67.7510   94.7908    9.3312 C.3     1  UNL1        0.2525
     25 O          67.2394   94.8450   10.7402 O.3     1  UNL1       -0.4714
@<TRIPOS>BOND
     1    24    25    1
     2    25    18    1
     3    18    19   ar
     4    19    20   ar
     5    20    21   ar
     6    21    17    1
     7    17    16    1
     8    16    14    1
     9    14     1    1
    10     1     2   ar
    11     2     3   ar
    12     3     4   ar
    13     4     5   ar
    14     5     6    1
    15     5     7   ar
    16     7     8   ar
    17     8     9   ar
    18     9    10   ar
    19    10    11    2
    20    10    12   ar
    21    12    13    1
    22    21    22   ar
    23    22    23   ar
    24    23    18   ar
    25    12     1   ar
    26     9     3   ar
    27    14    15    1
@<TRIPOS>MOLECULE
*****
 25 27 0 0 0
SMALL
GASTEIGER

@<TRIPOS>ATOM
      1 C          64.1438   89.0496   13.8840 C.ar    1  UNL1        0.2002
      2 N          65.1431   89.7533   14.7536 N.ar    1  UNL1       -0.2150
      3 C          65.6580   91.1063   14.3608 C.ar    1  UNL1        0.0884
      4 C          66.6573   91.8099   15.2305 C.ar    1  UNL1        0.0151
      5 C          67.1722   93.1629   14.8377 C.ar    1  UNL1       -0.0203
      6 C          68.1715   93.8666   15.7073 C.3     1  UNL1        0.0311
      7 C          66.6878   93.8122   13.5752 C.ar    1  UNL1       -0.0040
      8 C          65.6885   93.1086   12.7056 C.ar    1  UNL1        0.0059
      9 C          65.1736   91.7556   13.0984 C.ar    1  UNL1        0.0739
     10 C          64.1743   91.0519   12.2288 C.ar    1  UNL1        0.2643
     11 O          63.6899   91.7013   10.9663 O.2     1  UNL1       -0.2668
     12 N          63.6594   89.6990   12.6216 N.ar    1  UNL1       -0.2669
     13 C          62.6601   88.9953   11.7519 C.3     1  UNL1        0.1363
     14 N          63.6288   87.6966   14.2768 N.pl3   1  UNL1       -0.3039
     15 H          62.6957   87.4498   14.0830 H       1  UNL1        0.1496
     16 C          64.5356   86.7197   14.9648 C.3     1  UNL1        0.0942
     17 C          63.9725   85.4608   15.5546 C.3     1  UNL1        0.0476
     18 C          63.0728   81.9393   12.9015 C.ar    1  UNL1        0.1387
     19 C          62.2839   82.1514   14.1595 C.ar    1  UNL1        0.0366
     20 C          62.5838   83.3252   15.0438 C.ar    1  UNL1       -0.0011
     21 C          63.6726   84.2869   14.6702 C.ar    1  UNL1       -0.0203
     22 C          64.4615   84.0748   13.4122 C.ar    1  UNL1       -0.0011
     23 C          64.1616   82.9010   12.5278 C.ar    1  UNL1        0.0366
     24 C          63.1730   80.7938   10.5717 C.3     1  UNL1        0.2525
     25 O          62.7730   80.7654   12.0171 O.3     1  UNL1       -0.4714
@<TRIPOS>BOND
     1    24    25    1
     2    25    18    1
     3    18    19   ar
     4    19    20   ar
     5    20    21   ar
     6    21    17    1
     7    17    16    1
     8    16    14    1
     9    14     1    1
    10     1     2   ar
    11     2     3   ar
    12     3     4   ar
    13     4     5   ar
    14     5     6    1
    15     5     7   ar
    16     7     8   ar
    17     8     9   ar
    18     9    10   ar
    19    10    11    2
    20    10    12   ar
    21    12    13    1
    22    21    22   ar
    23    22    23   ar
    24    23    18   ar
    25    12     1   ar
    26     9     3   ar
    27    14    15    1
