@<TRIPOS>MOLECULE
*****
 31 34 0 0 0
SMALL
GASTEIGER

@<TRIPOS>ATOM
      1 N          63.1383   89.6465   11.7146 N.pl3   1  UNL1       -0.2736
      2 C          63.8089   90.9177   11.2852 C.3     1  UNL1        0.1082
      3 C          64.5521   91.4709   12.4649 C.3     1  UNL1        0.1549
      4 C          65.3940   92.7008   12.6339 C.2     1  UNL1        0.2922
      5 O          65.6054   93.6301   11.4755 O.2     1  UNL1       -0.2563
      6 N          66.0245   93.0015   13.9614 N.am    1  UNL1       -0.1448
      7 C          66.8664   94.2314   14.1304 C.3     1  UNL1        0.2159
      8 C          65.8132   92.0723   15.1197 C.2     1  UNL1        0.3732
      9 N          66.4437   92.3729   16.4472 N.pl3   1  UNL1       -0.2512
     10 N          64.9713   90.8424   14.9507 N.2     1  UNL1       -0.1016
     11 C          64.3407   90.5417   13.6233 C.3     1  UNL1        0.1974
     12 C          63.4669   89.4141   13.1596 C.3     1  UNL1        0.1382
     13 H          66.9963   93.1802   16.5581 H       1  UNL1        0.2412
     14 H          66.3050   91.7630   17.2074 H       1  UNL1        0.2412
     15 C          61.4818   86.3902   10.1643 C.ar    1  UNL1        0.2569
     16 N          62.3319   87.2740   11.0283 N.ar    1  UNL1       -0.1768
     17 C          62.2881   88.7628   10.8506 C.ar    1  UNL1        0.2226
     18 N          61.3943   89.3679    9.8091 N.ar    1  UNL1       -0.2155
     19 C          60.5442   88.4841    8.9452 C.ar    1  UNL1        0.0942
     20 C          59.6503   89.0892    7.9036 C.3     1  UNL1        0.0548
     21 C          60.5879   86.9953    9.1228 C.ar    1  UNL1        0.2065
     22 F          59.7378   86.1116    8.2588 F       1  UNL1       -0.1980
     23 C          62.5911   84.2789   11.1947 C.3     1  UNL1        0.2543
     24 O          61.5256   84.9015   10.3420 O.3     1  UNL1       -0.4545
     25 C          64.0417   89.5252   14.6850 C.ar    1  UNL1        0.0431
     26 C          64.4145   88.0878   14.4734 C.ar    1  UNL1        0.0012
     27 C          64.1154   87.0713   15.5351 C.ar    1  UNL1       -0.0001
     28 C          63.4436   87.4922   16.8085 C.ar    1  UNL1        0.0023
     29 C          63.0708   88.9297   17.0201 C.ar    1  UNL1        0.0294
     30 C          63.3698   89.9462   15.9584 C.ar    1  UNL1        0.1393
     31 F          62.9971   91.3837   16.1700 F       1  UNL1       -0.2044
@<TRIPOS>BOND
     1    23    24    1
     2    24    15    1
     3    15    16   ar
     4    16    17   ar
     5    17     1    1
     6     1     2    1
     7     3     2    1
     8     3     4    1
     9     4     5    2
    10     4     6   am
    11     6     7    1
    12     6     8    1
    13     8     9    1
    14     8    10    2
    15    10    11    1
    16    11    25    1
    17    25    26   ar
    18    26    27   ar
    19    27    28   ar
    20    28    29   ar
    21    29    30   ar
    22    30    31    1
    23    11    12    1
    24    17    18   ar
    25    18    19   ar
    26    19    20    1
    27    19    21   ar
    28    21    22    1
    29    21    15   ar
    30    12     1    1
    31    11     3    1
    32    30    25   ar
    33     9    13    1
    34     9    14    1
@<TRIPOS>MOLECULE
*****
 31 34 0 0 0
SMALL
GASTEIGER

@<TRIPOS>ATOM
      1 N          63.1044   89.8547   11.6277 N.pl3   1  UNL1       -0.2736
      2 C          63.7972   91.1267   11.2377 C.3     1  UNL1        0.1082
      3 C          64.5801   91.6101   12.4223 C.3     1  UNL1        0.1549
      4 C          65.4563   92.8107   12.6242 C.2     1  UNL1        0.2922
      5 O          65.6653   93.7840   11.5021 O.2     1  UNL1       -0.2563
      6 N          66.1235   93.0381   13.9483 N.am    1  UNL1       -0.1448
      7 C          66.9997   94.2388   14.1502 C.3     1  UNL1        0.2159
      8 C          65.9146   92.0649   15.0704 C.2     1  UNL1        0.3732
      9 N          66.5818   92.2923   16.3945 N.pl3   1  UNL1       -0.2512
     10 N          65.0384   90.8643   14.8685 N.2     1  UNL1       -0.1016
     11 C          64.3712   90.6368   13.5445 C.3     1  UNL1        0.1974
     12 C          63.4591   89.5520   13.0534 C.3     1  UNL1        0.1382
     13 H          67.1569   93.0803   16.5270 H       1  UNL1        0.2412
     14 H          66.4446   91.6536   17.1310 H       1  UNL1        0.2412
     15 C          60.3378   88.8780    8.9552 C.ar    1  UNL1        0.2569
     16 N          61.2289   89.7025    9.8363 N.ar    1  UNL1       -0.1768
     17 C          62.2133   89.0302   10.7467 C.ar    1  UNL1        0.2226
     18 N          62.3067   87.5334   10.7761 N.ar    1  UNL1       -0.2155
     19 C          61.4155   86.7089    9.8951 C.ar    1  UNL1        0.0942
     20 C          61.5089   85.2121    9.9245 C.3     1  UNL1        0.0548
     21 C          60.4311   87.3812    8.9847 C.ar    1  UNL1        0.2065
     22 F          59.5400   86.5567    8.1037 F       1  UNL1       -0.1980
     23 C          59.4625   89.3723    6.5595 C.3     1  UNL1        0.2543
     24 O          59.3534   89.5504    8.0448 O.3     1  UNL1       -0.4545
     25 C          64.0702   89.5828   14.5684 C.ar    1  UNL1        0.0431
     26 C          64.4380   88.1529   14.3032 C.ar    1  UNL1        0.0012
     27 C          64.1370   87.0989   15.3271 C.ar    1  UNL1       -0.0001
     28 C          63.4683   87.4747   16.6161 C.ar    1  UNL1        0.0023
     29 C          63.1006   88.9046   16.8813 C.ar    1  UNL1        0.0294
     30 C          63.4015   89.9586   15.8574 C.ar    1  UNL1        0.1393
     31 F          63.0338   91.3885   16.1225 F       1  UNL1       -0.2044
@<TRIPOS>BOND
     1    23    24    1
     2    24    15    1
     3    15    16   ar
     4    16    17   ar
     5    17     1    1
     6     1     2    1
     7     3     2    1
     8     3     4    1
     9     4     5    2
    10     4     6   am
    11     6     7    1
    12     6     8    1
    13     8     9    1
    14     8    10    2
    15    10    11    1
    16    11    25    1
    17    25    26   ar
    18    26    27   ar
    19    27    28   ar
    20    28    29   ar
    21    29    30   ar
    22    30    31    1
    23    11    12    1
    24    17    18   ar
    25    18    19   ar
    26    19    20    1
    27    19    21   ar
    28    21    22    1
    29    21    15   ar
    30    12     1    1
    31    11     3    1
    32    30    25   ar
    33     9    13    1
    34     9    14    1
@<TRIPOS>MOLECULE
*****
 31 34 0 0 0
SMALL
GASTEIGER

@<TRIPOS>ATOM
      1 N          62.6956   84.9398   12.0214 N.pl3   1  UNL1       -0.2736
      2 C          63.3979   85.8782   12.9574 C.3     1  UNL1        0.1082
      3 C          63.1877   87.2763   12.4563 C.3     1  UNL1        0.1549
      4 C          63.6466   88.6074   12.9735 C.2     1  UNL1        0.2922
      5 O          64.4789   88.6818   14.2192 O.2     1  UNL1       -0.2563
      6 N          63.2733   89.8643   12.2448 N.am    1  UNL1       -0.1448
      7 C          63.7322   91.1955   12.7619 C.3     1  UNL1        0.2159
      8 C          62.4411   89.7900   10.9991 C.2     1  UNL1        0.3732
      9 N          62.0677   91.0469   10.2704 N.pl3   1  UNL1       -0.2512
     10 N          61.9821   88.4589   10.4820 N.2     1  UNL1       -0.1016
     11 C          62.3555   87.2020   11.2106 C.3     1  UNL1        0.1974
     12 C          62.0513   85.7580   10.9418 C.3     1  UNL1        0.1382
     13 H          62.3689   91.9206   10.6098 H       1  UNL1        0.2412
     14 H          61.5214   90.9981    9.4528 H       1  UNL1        0.2412
     15 C          63.0882   81.0902   11.1399 C.ar    1  UNL1        0.2569
     16 N          63.1376   82.5845   11.0179 N.ar    1  UNL1       -0.1768
     17 C          62.6462   83.4456   12.1435 C.ar    1  UNL1        0.2226
     18 N          62.1053   82.8125   13.3912 N.ar    1  UNL1       -0.2155
     19 C          62.0560   81.3183   13.5132 C.ar    1  UNL1        0.0942
     20 C          61.5151   80.6852   14.7609 C.3     1  UNL1        0.0548
     21 C          62.5474   80.4572   12.3876 C.ar    1  UNL1        0.2065
     22 F          62.4980   78.9629   12.5097 F       1  UNL1       -0.1980
     23 C          62.7015   79.1473    9.4590 C.3     1  UNL1        0.2543
     24 O          63.5796   80.2292   10.0143 O.3     1  UNL1       -0.4545
     25 C          61.5226   86.9719    9.9845 C.ar    1  UNL1        0.0431
     26 C          62.1141   86.2730    8.7963 C.ar    1  UNL1        0.0012
     27 C          61.2813   86.0429    7.5702 C.ar    1  UNL1       -0.0001
     28 C          59.8569   86.5118    7.5322 C.ar    1  UNL1        0.0023
     29 C          59.2654   87.2107    8.7204 C.ar    1  UNL1        0.0294
     30 C          60.0983   87.4407    9.9465 C.ar    1  UNL1        0.1393
     31 F          59.5068   88.1396   11.1347 F       1  UNL1       -0.2044
@<TRIPOS>BOND
     1    23    24    1
     2    24    15    1
     3    15    16   ar
     4    16    17   ar
     5    17     1    1
     6     1     2    1
     7     3     2    1
     8     3     4    1
     9     4     5    2
    10     4     6   am
    11     6     7    1
    12     6     8    1
    13     8     9    1
    14     8    10    2
    15    10    11    1
    16    11    25    1
    17    25    26   ar
    18    26    27   ar
    19    27    28   ar
    20    28    29   ar
    21    29    30   ar
    22    30    31    1
    23    11    12    1
    24    17    18   ar
    25    18    19   ar
    26    19    20    1
    27    19    21   ar
    28    21    22    1
    29    21    15   ar
    30    12     1    1
    31    11     3    1
    32    30    25   ar
    33     9    13    1
    34     9    14    1
@<TRIPOS>MOLECULE
*****
 31 34 0 0 0
SMALL
GASTEIGER

@<TRIPOS>ATOM
      1 N          62.4464   89.2195   11.6162 N.pl3   1  UNL1       -0.2736
      2 C          61.5534   89.9452   10.6539 C.3     1  UNL1        0.1082
      3 C          60.9870   88.9379    9.6975 C.3     1  UNL1        0.1549
      4 C          60.0469   89.0741    8.5366 C.2     1  UNL1        0.2922
      5 O          59.5039   90.4223    8.1654 O.2     1  UNL1       -0.2563
      6 N          59.6499   87.8622    7.7469 N.am    1  UNL1       -0.1448
      7 C          58.7098   87.9984    6.5859 C.3     1  UNL1        0.2159
      8 C          60.1928   86.5142    8.1181 C.2     1  UNL1        0.3732
      9 N          59.7958   85.3022    7.3284 N.pl3   1  UNL1       -0.2512
     10 N          61.1329   86.3779    9.2790 N.2     1  UNL1       -0.1016
     11 C          61.5299   87.5898   10.0687 C.3     1  UNL1        0.1974
     12 C          62.4319   87.7638   11.2545 C.3     1  UNL1        0.1382
     13 H          59.1788   85.3916    6.5664 H       1  UNL1        0.2412
     14 H          60.1522   84.4174    7.5720 H       1  UNL1        0.2412
     15 C          63.6943   90.0705   15.2862 C.ar    1  UNL1        0.2569
     16 N          62.9223   89.4495   14.1599 N.ar    1  UNL1       -0.1768
     17 C          63.2184   89.8406   12.7424 C.ar    1  UNL1        0.2226
     18 N          64.2865   90.8527   12.4511 N.ar    1  UNL1       -0.2155
     19 C          65.0584   91.4736   13.5774 C.ar    1  UNL1        0.0942
     20 C          66.1265   92.4857   13.2861 C.3     1  UNL1        0.0548
     21 C          64.7624   91.0826   14.9949 C.ar    1  UNL1        0.2065
     22 F          65.5344   91.7036   16.1211 F       1  UNL1       -0.1980
     23 C          63.0364   88.2607   17.0304 C.3     1  UNL1        0.2543
     24 O          63.3982   89.6793   16.7037 O.3     1  UNL1       -0.4545
     25 C          62.1506   86.3140   10.5556 C.ar    1  UNL1        0.0431
     26 C          61.8881   85.8380   11.9537 C.ar    1  UNL1        0.0012
     27 C          62.5088   84.5622   12.4405 C.ar    1  UNL1       -0.0001
     28 C          63.3920   83.7624   11.5294 C.ar    1  UNL1        0.0023
     29 C          63.6546   84.2384   10.1313 C.ar    1  UNL1        0.0294
     30 C          63.0339   85.5142    9.6444 C.ar    1  UNL1        0.1393
     31 F          63.2964   85.9902    8.2464 F       1  UNL1       -0.2044
@<TRIPOS>BOND
     1    23    24    1
     2    24    15    1
     3    15    16   ar
     4    16    17   ar
     5    17     1    1
     6     1     2    1
     7     3     2    1
     8     3     4    1
     9     4     5    2
    10     4     6   am
    11     6     7    1
    12     6     8    1
    13     8     9    1
    14     8    10    2
    15    10    11    1
    16    11    25    1
    17    25    26   ar
    18    26    27   ar
    19    27    28   ar
    20    28    29   ar
    21    29    30   ar
    22    30    31    1
    23    11    12    1
    24    17    18   ar
    25    18    19   ar
    26    19    20    1
    27    19    21   ar
    28    21    22    1
    29    21    15   ar
    30    12     1    1
    31    11     3    1
    32    30    25   ar
    33     9    13    1
    34     9    14    1
@<TRIPOS>MOLECULE
*****
 31 34 0 0 0
SMALL
GASTEIGER

@<TRIPOS>ATOM
      1 N          62.4401   89.2158   11.6068 N.pl3   1  UNL1       -0.2736
      2 C          61.5466   89.9433   10.6464 C.3     1  UNL1        0.1082
      3 C          60.9812   88.9382    9.6872 C.3     1  UNL1        0.1549
      4 C          60.0412   89.0768    8.5266 C.2     1  UNL1        0.2922
      5 O          59.4970   90.4255    8.1590 O.2     1  UNL1       -0.2563
      6 N          59.6453   87.8667    7.7334 N.am    1  UNL1       -0.1448
      7 C          58.7053   88.0053    6.5727 C.3     1  UNL1        0.2159
      8 C          60.1894   86.5181    8.1010 C.2     1  UNL1        0.3732
      9 N          59.7936   85.3080    7.3079 N.pl3   1  UNL1       -0.2512
     10 N          61.1294   86.3795    9.2616 N.2     1  UNL1       -0.1016
     11 C          61.5253   87.5895   10.0548 C.3     1  UNL1        0.1974
     12 C          62.4270   87.7611   11.2412 C.3     1  UNL1        0.1382
     13 H          59.1766   85.3989    6.5461 H       1  UNL1        0.2412
     14 H          60.1507   84.4228    7.5491 H       1  UNL1        0.2412
     15 C          65.0873   91.4253   13.5718 C.ar    1  UNL1        0.2569
     16 N          64.3159   90.8067   12.4438 N.ar    1  UNL1       -0.1768
     17 C          63.2114   89.8344   12.7348 C.ar    1  UNL1        0.2226
     18 N          62.8782   89.4807   14.1539 N.ar    1  UNL1       -0.2155
     19 C          63.6496   90.0994   15.2819 C.ar    1  UNL1        0.0942
     20 C          63.3164   89.7457   16.7010 C.3     1  UNL1        0.0548
     21 C          64.7541   91.0717   14.9909 C.ar    1  UNL1        0.2065
     22 F          65.5254   91.6902   16.1189 F       1  UNL1       -0.1980
     23 C          67.6207   91.9965   13.4977 C.3     1  UNL1        0.2543
     24 O          66.1918   92.3976   13.2806 O.3     1  UNL1       -0.4545
     25 C          62.1471   86.3130   10.5382 C.ar    1  UNL1        0.0431
     26 C          61.8849   85.8329   11.9349 C.ar    1  UNL1        0.0012
     27 C          62.5066   84.5563   12.4184 C.ar    1  UNL1       -0.0001
     28 C          63.3906   83.7598   11.5051 C.ar    1  UNL1        0.0023
     29 C          63.6529   84.2399   10.1084 C.ar    1  UNL1        0.0294
     30 C          63.0311   85.5165    9.6249 C.ar    1  UNL1        0.1393
     31 F          63.2933   85.9965    8.2282 F       1  UNL1       -0.2044
@<TRIPOS>BOND
     1    23    24    1
     2    24    15    1
     3    15    16   ar
     4    16    17   ar
     5    17     1    1
     6     1     2    1
     7     3     2    1
     8     3     4    1
     9     4     5    2
    10     4     6   am
    11     6     7    1
    12     6     8    1
    13     8     9    1
    14     8    10    2
    15    10    11    1
    16    11    25    1
    17    25    26   ar
    18    26    27   ar
    19    27    28   ar
    20    28    29   ar
    21    29    30   ar
    22    30    31    1
    23    11    12    1
    24    17    18   ar
    25    18    19   ar
    26    19    20    1
    27    19    21   ar
    28    21    22    1
    29    21    15   ar
    30    12     1    1
    31    11     3    1
    32    30    25   ar
    33     9    13    1
    34     9    14    1
@<TRIPOS>MOLECULE
*****
 31 34 0 0 0
SMALL
GASTEIGER

@<TRIPOS>ATOM
      1 N          62.6454   84.9781   12.0675 N.pl3   1  UNL1       -0.2736
      2 C          63.3708   85.8964   13.0058 C.3     1  UNL1        0.1082
      3 C          63.1992   87.3001   12.5055 C.3     1  UNL1        0.1549
      4 C          63.6926   88.6180   13.0248 C.2     1  UNL1        0.2922
      5 O          64.5241   88.6689   14.2722 O.2     1  UNL1       -0.2563
      6 N          63.3545   89.8851   12.2965 N.am    1  UNL1       -0.1448
      7 C          63.8479   91.2031   12.8158 C.3     1  UNL1        0.2159
      8 C          62.5230   89.8342   11.0492 C.2     1  UNL1        0.3732
      9 N          62.1849   91.1013   10.3210 N.pl3   1  UNL1       -0.2512
     10 N          62.0296   88.5163   10.5300 N.2     1  UNL1       -0.1016
     11 C          62.3677   87.2493   11.2581 C.3     1  UNL1        0.1974
     12 C          62.0254   85.8141   10.9874 C.3     1  UNL1        0.1382
     13 H          62.5087   91.9663   10.6617 H       1  UNL1        0.2412
     14 H          61.6391   91.0679    9.5023 H       1  UNL1        0.2412
     15 C          61.7646   81.3764   13.4826 C.ar    1  UNL1        0.2569
     16 N          61.8544   82.8688   13.3619 N.ar    1  UNL1       -0.1768
     17 C          62.5557   83.4856   12.1881 C.ar    1  UNL1        0.2226
     18 N          63.1673   82.6099   11.1350 N.ar    1  UNL1       -0.2155
     19 C          63.0776   81.1175   11.2557 C.ar    1  UNL1        0.0942
     20 C          63.6892   80.2418   10.2026 C.3     1  UNL1        0.0548
     21 C          62.3763   80.5007   12.4294 C.ar    1  UNL1        0.2065
     22 F          62.2866   79.0082   12.5501 F       1  UNL1       -0.1980
     23 C          59.7156   80.1261   14.4767 C.3     1  UNL1        0.2543
     24 O          61.0633   80.7597   14.6563 O.3     1  UNL1       -0.4545
     25 C          61.5313   87.0427   10.0302 C.ar    1  UNL1        0.0431
     26 C          62.1144   86.3518    8.8332 C.ar    1  UNL1        0.0012
     27 C          61.2780   86.1452    7.6052 C.ar    1  UNL1       -0.0001
     28 C          59.8587   86.6295    7.5743 C.ar    1  UNL1        0.0023
     29 C          59.2757   87.3203    8.7713 C.ar    1  UNL1        0.0294
     30 C          60.1120   87.5269    9.9993 C.ar    1  UNL1        0.1393
     31 F          59.5290   88.2178   11.1963 F       1  UNL1       -0.2044
@<TRIPOS>BOND
     1    23    24    1
     2    24    15    1
     3    15    16   ar
     4    16    17   ar
     5    17     1    1
     6     1     2    1
     7     3     2    1
     8     3     4    1
     9     4     5    2
    10     4     6   am
    11     6     7    1
    12     6     8    1
    13     8     9    1
    14     8    10    2
    15    10    11    1
    16    11    25    1
    17    25    26   ar
    18    26    27   ar
    19    27    28   ar
    20    28    29   ar
    21    29    30   ar
    22    30    31    1
    23    11    12    1
    24    17    18   ar
    25    18    19   ar
    26    19    20    1
    27    19    21   ar
    28    21    22    1
    29    21    15   ar
    30    12     1    1
    31    11     3    1
    32    30    25   ar
    33     9    13    1
    34     9    14    1
@<TRIPOS>MOLECULE
*****
 31 34 0 0 0
SMALL
GASTEIGER

@<TRIPOS>ATOM
      1 N          64.4212   89.6735   13.7901 N.pl3   1  UNL1       -0.2736
      2 C          63.8235   90.1061   12.4841 C.3     1  UNL1        0.1082
      3 C          64.4682   91.4005   12.0854 C.3     1  UNL1        0.1549
      4 C          64.2769   92.2920   10.8944 C.2     1  UNL1        0.2922
      5 O          63.2807   91.9246    9.8347 O.2     1  UNL1       -0.2563
      6 N          65.0817   93.5510   10.7631 N.am    1  UNL1       -0.1448
      7 C          64.8904   94.4427    9.5720 C.3     1  UNL1        0.2159
      8 C          66.0777   93.9184   11.8226 C.2     1  UNL1        0.3732
      9 N          66.8826   95.1775   11.6913 N.pl3   1  UNL1       -0.2512
     10 N          66.2691   93.0269   13.0136 N.2     1  UNL1       -0.1016
     11 C          65.4643   91.7679   13.1450 C.3     1  UNL1        0.1974
     12 C          65.4353   90.7006   14.1986 C.3     1  UNL1        0.1382
     13 H          66.7570   95.7627   10.9096 H       1  UNL1        0.2412
     14 H          67.5363   95.4186   12.3868 H       1  UNL1        0.2412
     15 C          63.8677   85.8442   14.6734 C.ar    1  UNL1        0.2569
     16 N          64.2219   87.0859   13.9100 N.ar    1  UNL1       -0.1768
     17 C          64.0670   88.4319   14.5536 C.ar    1  UNL1        0.2226
     18 N          63.5581   88.5363   15.9607 N.ar    1  UNL1       -0.2155
     19 C          63.2039   87.2946   16.7242 C.ar    1  UNL1        0.0942
     20 C          62.6949   87.3989   18.1313 C.3     1  UNL1        0.0548
     21 C          63.3587   85.9486   16.0805 C.ar    1  UNL1        0.2065
     22 F          63.0046   84.7069   16.8440 F       1  UNL1       -0.1980
     23 C          62.8110   83.7427   13.5703 C.3     1  UNL1        0.2543
     24 O          64.0226   84.4982   14.0297 O.3     1  UNL1       -0.4545
     25 C          66.4179   92.0035   14.2787 C.ar    1  UNL1        0.0431
     26 C          65.8979   92.4264   15.6206 C.ar    1  UNL1        0.0012
     27 C          66.8515   92.6620   16.7542 C.ar    1  UNL1       -0.0001
     28 C          68.3251   92.4748   16.5459 C.ar    1  UNL1        0.0023
     29 C          68.8451   92.0519   15.2039 C.ar    1  UNL1        0.0294
     30 C          67.8915   91.8163   14.0703 C.ar    1  UNL1        0.1393
     31 F          68.4115   91.3935   12.7283 F       1  UNL1       -0.2044
@<TRIPOS>BOND
     1    23    24    1
     2    24    15    1
     3    15    16   ar
     4    16    17   ar
     5    17     1    1
     6     1     2    1
     7     3     2    1
     8     3     4    1
     9     4     5    2
    10     4     6   am
    11     6     7    1
    12     6     8    1
    13     8     9    1
    14     8    10    2
    15    10    11    1
    16    11    25    1
    17    25    26   ar
    18    26    27   ar
    19    27    28   ar
    20    28    29   ar
    21    29    30   ar
    22    30    31    1
    23    11    12    1
    24    17    18   ar
    25    18    19   ar
    26    19    20    1
    27    19    21   ar
    28    21    22    1
    29    21    15   ar
    30    12     1    1
    31    11     3    1
    32    30    25   ar
    33     9    13    1
    34     9    14    1
@<TRIPOS>MOLECULE
*****
 31 34 0 0 0
SMALL
GASTEIGER

@<TRIPOS>ATOM
      1 N          63.5093   86.6433   13.2805 N.pl3   1  UNL1       -0.2736
      2 C          63.7981   85.5737   14.2916 C.3     1  UNL1        0.1082
      3 C          63.5405   84.2443   13.6465 C.3     1  UNL1        0.1549
      4 C          63.6561   82.8400   14.1607 C.2     1  UNL1        0.2922
      5 O          64.1042   82.5919   15.5706 O.2     1  UNL1       -0.2563
      6 N          63.3236   81.6836   13.2649 N.am    1  UNL1       -0.1448
      7 C          63.4391   80.2791   13.7791 C.3     1  UNL1        0.2159
      8 C          62.8756   81.9316   11.8551 C.2     1  UNL1        0.3732
      9 N          62.5430   80.7752   10.9594 N.pl3   1  UNL1       -0.2512
     10 N          62.7600   83.3359   11.3409 N.2     1  UNL1       -0.1016
     11 C          63.0925   84.4923   12.2366 C.3     1  UNL1        0.1974
     12 C          63.0732   85.9750   12.0104 C.3     1  UNL1        0.1382
     13 H          62.6189   79.8534   11.2968 H       1  UNL1        0.2412
     14 H          62.2490   80.9380   10.0340 H       1  UNL1        0.2412
     15 C          63.8428   90.5292   12.5460 C.ar    1  UNL1        0.2569
     16 N          63.7175   89.0507   12.3259 N.ar    1  UNL1       -0.1768
     17 C          63.6345   88.1218   13.5007 C.ar    1  UNL1        0.2226
     18 N          63.6767   88.6713   14.8958 N.ar    1  UNL1       -0.2155
     19 C          63.8020   90.1498   15.1159 C.ar    1  UNL1        0.0942
     20 C          63.8442   90.6994   16.5110 C.3     1  UNL1        0.0548
     21 C          63.8850   91.0788   13.9411 C.ar    1  UNL1        0.2065
     22 F          64.0102   92.5572   14.1613 F       1  UNL1       -0.1980
     23 C          63.0690   91.2184   10.1636 C.3     1  UNL1        0.2543
     24 O          63.9258   91.4580   11.3712 O.3     1  UNL1       -0.4545
     25 C          62.6600   84.8935   10.8575 C.ar    1  UNL1        0.0431
     26 C          61.4179   85.7132   10.6697 C.ar    1  UNL1        0.0012
     27 C          60.9854   86.1144    9.2906 C.ar    1  UNL1       -0.0001
     28 C          61.7950   85.6958    8.0992 C.ar    1  UNL1        0.0023
     29 C          63.0371   84.8761    8.2870 C.ar    1  UNL1        0.0294
     30 C          63.4696   84.4749    9.6661 C.ar    1  UNL1        0.1393
     31 F          64.7117   83.6551    9.8539 F       1  UNL1       -0.2044
@<TRIPOS>BOND
     1    23    24    1
     2    24    15    1
     3    15    16   ar
     4    16    17   ar
     5    17     1    1
     6     1     2    1
     7     3     2    1
     8     3     4    1
     9     4     5    2
    10     4     6   am
    11     6     7    1
    12     6     8    1
    13     8     9    1
    14     8    10    2
    15    10    11    1
    16    11    25    1
    17    25    26   ar
    18    26    27   ar
    19    27    28   ar
    20    28    29   ar
    21    29    30   ar
    22    30    31    1
    23    11    12    1
    24    17    18   ar
    25    18    19   ar
    26    19    20    1
    27    19    21   ar
    28    21    22    1
    29    21    15   ar
    30    12     1    1
    31    11     3    1
    32    30    25   ar
    33     9    13    1
    34     9    14    1
@<TRIPOS>MOLECULE
*****
 31 34 0 0 0
SMALL
GASTEIGER

@<TRIPOS>ATOM
      1 N          63.5936   86.9820   12.9671 N.pl3   1  UNL1       -0.2736
      2 C          63.8292   86.0352   14.1064 C.3     1  UNL1        0.1082
      3 C          63.4749   84.6537   13.6418 C.3     1  UNL1        0.1549
      4 C          63.5074   83.3230   14.3333 C.2     1  UNL1        0.2922
      5 O          63.9620   83.2299   15.7598 O.2     1  UNL1       -0.2563
      6 N          63.0854   82.0853   13.5984 N.am    1  UNL1       -0.1448
      7 C          63.1179   80.7546   14.2900 C.3     1  UNL1        0.2159
      8 C          62.6308   82.1784   12.1720 C.2     1  UNL1        0.3732
      9 N          62.2088   80.9407   11.4370 N.pl3   1  UNL1       -0.2512
     10 N          62.5983   83.5090   11.4805 N.2     1  UNL1       -0.1016
     11 C          63.0203   84.7467   12.2154 C.3     1  UNL1        0.1974
     12 C          63.0937   86.1857   11.7984 C.3     1  UNL1        0.1382
     13 H          62.2301   80.0673   11.8909 H       1  UNL1        0.2412
     14 H          61.9104   81.0018   10.5008 H       1  UNL1        0.2412
     15 C          64.6372   90.5958   14.2327 C.ar    1  UNL1        0.2569
     16 N          64.4123   89.1130   14.2076 N.ar    1  UNL1       -0.1768
     17 C          63.8185   88.4648   12.9921 C.ar    1  UNL1        0.2226
     18 N          63.4496   89.2995   11.8017 N.ar    1  UNL1       -0.2155
     19 C          63.6745   90.7824   11.8268 C.ar    1  UNL1        0.0942
     20 C          63.3056   91.6171   10.6364 C.3     1  UNL1        0.0548
     21 C          64.2683   91.4305   13.0422 C.ar    1  UNL1        0.2065
     22 F          64.4932   92.9134   13.0673 F       1  UNL1       -0.1980
     23 C          66.5140   92.0130   15.3369 C.3     1  UNL1        0.2543
     24 O          65.2310   91.2439   15.4481 O.3     1  UNL1       -0.4545
     25 C          62.5917   84.9942   10.7994 C.ar    1  UNL1        0.0431
     26 C          61.3453   85.7805   10.5195 C.ar    1  UNL1        0.0012
     27 C          60.9168   86.0280    9.1036 C.ar    1  UNL1       -0.0001
     28 C          61.7346   85.4892    7.9674 C.ar    1  UNL1        0.0023
     29 C          62.9810   84.7029    8.2472 C.ar    1  UNL1        0.0294
     30 C          63.4096   84.4554    9.6632 C.ar    1  UNL1        0.1393
     31 F          64.6560   83.6691    9.9430 F       1  UNL1       -0.2044
@<TRIPOS>BOND
     1    23    24    1
     2    24    15    1
     3    15    16   ar
     4    16    17   ar
     5    17     1    1
     6     1     2    1
     7     3     2    1
     8     3     4    1
     9     4     5    2
    10     4     6   am
    11     6     7    1
    12     6     8    1
    13     8     9    1
    14     8    10    2
    15    10    11    1
    16    11    25    1
    17    25    26   ar
    18    26    27   ar
    19    27    28   ar
    20    28    29   ar
    21    29    30   ar
    22    30    31    1
    23    11    12    1
    24    17    18   ar
    25    18    19   ar
    26    19    20    1
    27    19    21   ar
    28    21    22    1
    29    21    15   ar
    30    12     1    1
    31    11     3    1
    32    30    25   ar
    33     9    13    1
    34     9    14    1
