@<TRIPOS>MOLECULE
*****
 42 45 0 0 0
SMALL
GASTEIGER

@<TRIPOS>ATOM
      1 N          62.0578   90.0734   13.5497 N.3     1  UNL1       -0.2947
      2 H          62.0792   89.1904   14.0598 H       1  UNL1        0.1233
      3 C          63.3957   90.7214   13.7495 C.3     1  UNL1        0.0888
      4 C          64.0680   90.6566   15.0889 C.3     1  UNL1        0.0948
      5 N          65.3982   91.3190   15.2932 N.am    1  UNL1       -0.2706
      6 C          65.5434   92.4122   16.3100 C.2     1  UNL1        0.4020
      7 O          64.3584   92.8430   17.1224 O.2     1  UNL1       -0.2264
      8 H          66.1760   91.0363   14.7599 H       1  UNL1        0.1527
      9 O          66.8736   93.0746   16.5143 O.3     1  UNL1       -0.4274
     10 C          67.7849   93.3035   15.3451 C.3     1  UNL1        0.2621
     11 C          67.2445   93.2322   13.9477 C.ar    1  UNL1        0.1323
     12 N          67.4446   92.1025   12.9815 N.ar    1  UNL1       -0.2374
     13 C          66.7328   92.4502   11.7077 C.ar    1  UNL1        0.1062
     14 C          66.0927   93.7950   11.8867 C.ar    1  UNL1        0.0573
     15 S          66.4090   94.2782   13.2711 S.2     1  UNL1       -0.0666
     16 C          63.4101   89.9294   16.2239 C.3     1  UNL1        0.0474
     17 C          63.4771   88.4325   16.2949 C.ar    1  UNL1       -0.0205
     18 C          62.7689   87.7015   17.3967 C.ar    1  UNL1       -0.0042
     19 C          62.8360   86.2047   17.4677 C.ar    1  UNL1       -0.0003
     20 C          63.6111   85.4390   16.4368 C.ar    1  UNL1       -0.0000
     21 C          64.3192   86.1700   15.3350 C.ar    1  UNL1       -0.0003
     22 C          64.2522   87.6667   15.2640 C.ar    1  UNL1       -0.0042
     23 C          61.5749   89.7615   12.1643 C.3     1  UNL1        0.0888
     24 C          62.3286   88.7865   11.3090 C.3     1  UNL1        0.0948
     25 O          61.1170   86.0566   11.5906 O.2     1  UNL1       -0.2264
     26 C          62.5082   86.3146   12.0885 C.2     1  UNL1        0.4020
     27 N          63.1140   87.6796   11.9477 N.am    1  UNL1       -0.2706
     28 H          64.0271   87.8489   12.2745 H       1  UNL1        0.1527
     29 O          63.2936   85.2077   12.7271 O.3     1  UNL1       -0.4291
     30 C          63.3683   83.8631   12.0665 C.3     1  UNL1        0.2447
     31 C          62.9011   82.6405   12.7991 C.ar    1  UNL1        0.0714
     32 C          62.3313   82.6078   14.1864 C.ar    1  UNL1        0.1053
     33 N          61.9997   81.1829   14.5178 N.ar    1  UNL1       -0.2350
     34 C          62.3645   80.3350   13.3354 C.ar    1  UNL1        0.1343
     35 S          62.9216   81.2358   12.2733 S.2     1  UNL1       -0.0652
     36 C          62.2968   88.9184    9.8152 C.3     1  UNL1        0.0474
     37 C          61.2710   88.1689    9.0177 C.ar    1  UNL1       -0.0205
     38 C          60.0066   88.8534    8.5902 C.ar    1  UNL1       -0.0042
     39 C          58.9808   88.1040    7.7927 C.ar    1  UNL1       -0.0003
     40 C          59.2193   86.6700    7.4228 C.ar    1  UNL1       -0.0000
     41 C          60.4837   85.9856    7.8503 C.ar    1  UNL1       -0.0003
     42 C          61.5095   86.7350    8.6477 C.ar    1  UNL1       -0.0042
@<TRIPOS>BOND
     1    25    26    2
     2    26    27   am
     3    27    24    1
     4    24    23    1
     5    23     1    1
     6     1     3    1
     7     4     3    1
     8     4    16    1
     9    16    17    1
    10    17    18   ar
    11    18    19   ar
    12    19    20   ar
    13    20    21   ar
    14    21    22   ar
    15     4     5    1
    16     5     6   am
    17     6     7    2
    18     6     9    1
    19     9    10    1
    20    10    11    1
    21    11    12   ar
    22    12    13   ar
    23    13    14   ar
    24    14    15   ar
    25    24    36    1
    26    36    37    1
    27    37    38   ar
    28    38    39   ar
    29    39    40   ar
    30    40    41   ar
    31    41    42   ar
    32    26    29    1
    33    29    30    1
    34    30    31    1
    35    31    32   ar
    36    32    33   ar
    37    33    34   ar
    38    34    35   ar
    39    22    17   ar
    40    15    11   ar
    41    42    37   ar
    42    35    31   ar
    43    27    28    1
    44     1     2    1
    45     5     8    1
@<TRIPOS>MOLECULE
*****
 42 45 0 0 0
SMALL
GASTEIGER

@<TRIPOS>ATOM
      1 N          61.9634   89.2750   12.4044 N.3     1  UNL1       -0.2947
      2 H          61.0055   89.3917   12.0739 H       1  UNL1        0.1233
      3 C          62.6738   88.4346   11.3850 C.3     1  UNL1        0.0888
      4 C          61.9609   87.2898   10.7283 C.3     1  UNL1        0.0948
      5 N          61.5825   87.3739    9.2793 N.am    1  UNL1       -0.2706
      6 C          60.5222   88.3378    8.8357 C.2     1  UNL1        0.4020
      7 O          59.8403   89.2175    9.8412 O.2     1  UNL1       -0.2264
      8 H          62.0301   86.7965    8.6193 H       1  UNL1        0.1527
      9 O          60.1438   88.4219    7.3867 O.3     1  UNL1       -0.4274
     10 C          58.9471   89.2242    6.9694 C.3     1  UNL1        0.2621
     11 C          59.0878   90.2949    5.9284 C.ar    1  UNL1        0.1323
     12 N          60.3722   90.7557    5.3055 N.ar    1  UNL1       -0.2374
     13 C          60.0471   91.8385    4.3197 C.ar    1  UNL1        0.1062
     14 C          58.5617   92.0469    4.3332 C.ar    1  UNL1        0.0573
     15 S          57.9689   91.0929    5.3275 S.2     1  UNL1       -0.0666
     16 C          61.6264   86.0609   11.5207 C.3     1  UNL1        0.0474
     17 C          62.5544   84.8824   11.5045 C.ar    1  UNL1       -0.0205
     18 C          62.8692   84.1581   12.7797 C.ar    1  UNL1       -0.0042
     19 C          63.7971   82.9797   12.7635 C.ar    1  UNL1       -0.0003
     20 C          64.4102   82.5256   11.4721 C.ar    1  UNL1       -0.0000
     21 C          64.0954   83.2499   10.1968 C.ar    1  UNL1       -0.0003
     22 C          63.1675   84.4283   10.2130 C.ar    1  UNL1       -0.0042
     23 C          62.4768   90.6446   12.7366 C.3     1  UNL1        0.0888
     24 C          63.8266   90.8062   13.3709 C.3     1  UNL1        0.0948
     25 O          65.6603   92.9506   14.3901 O.2     1  UNL1       -0.2264
     26 C          65.9131   92.3210   13.0523 C.2     1  UNL1        0.4020
     27 N          64.9963   91.2489   12.5427 N.am    1  UNL1       -0.2706
     28 H          65.1622   90.8357   11.6646 H       1  UNL1        0.1527
     29 O          67.0828   92.7637   12.2241 O.3     1  UNL1       -0.4291
     30 C          66.9221   92.9652   10.7464 C.3     1  UNL1        0.2447
     31 C          66.9269   94.3514   10.1736 C.ar    1  UNL1        0.0714
     32 C          66.2947   95.5632   10.7918 C.ar    1  UNL1        0.1053
     33 N          66.5419   96.7300    9.8821 N.ar    1  UNL1       -0.2350
     34 C          67.3269   96.2395    8.7018 C.ar    1  UNL1        0.1343
     35 S          67.5649   94.7695    8.8819 S.2     1  UNL1       -0.0652
     36 C          64.0066   90.5251   14.8332 C.3     1  UNL1        0.0474
     37 C          63.8517   89.1265   15.3528 C.ar    1  UNL1       -0.0205
     38 C          64.4360   87.9743   14.5906 C.ar    1  UNL1       -0.0042
     39 C          64.2811   86.5757   15.1101 C.ar    1  UNL1       -0.0003
     40 C          63.5421   86.3293   16.3919 C.ar    1  UNL1       -0.0000
     41 C          62.9578   87.4815   17.1541 C.ar    1  UNL1       -0.0003
     42 C          63.1126   88.8801   16.6346 C.ar    1  UNL1       -0.0042
@<TRIPOS>BOND
     1    25    26    2
     2    26    27   am
     3    27    24    1
     4    24    23    1
     5    23     1    1
     6     1     3    1
     7     4     3    1
     8     4    16    1
     9    16    17    1
    10    17    18   ar
    11    18    19   ar
    12    19    20   ar
    13    20    21   ar
    14    21    22   ar
    15     4     5    1
    16     5     6   am
    17     6     7    2
    18     6     9    1
    19     9    10    1
    20    10    11    1
    21    11    12   ar
    22    12    13   ar
    23    13    14   ar
    24    14    15   ar
    25    24    36    1
    26    36    37    1
    27    37    38   ar
    28    38    39   ar
    29    39    40   ar
    30    40    41   ar
    31    41    42   ar
    32    26    29    1
    33    29    30    1
    34    30    31    1
    35    31    32   ar
    36    32    33   ar
    37    33    34   ar
    38    34    35   ar
    39    22    17   ar
    40    15    11   ar
    41    42    37   ar
    42    35    31   ar
    43    27    28    1
    44     1     2    1
    45     5     8    1
@<TRIPOS>MOLECULE
*****
 42 45 0 0 0
SMALL
GASTEIGER

@<TRIPOS>ATOM
      1 N          61.9139   89.4371   12.3122 N.3     1  UNL1       -0.2947
      2 H          61.6539   88.9801   13.1862 H       1  UNL1        0.1233
      3 C          62.5237   90.7576   12.6787 C.3     1  UNL1        0.0888
      4 C          63.8498   90.8030   13.3783 C.3     1  UNL1        0.0948
      5 N          65.0953   91.1203   12.6050 N.am    1  UNL1       -0.2706
      6 C          65.9909   92.2379   13.0512 C.2     1  UNL1        0.4020
      7 O          65.6411   93.0380   14.2708 O.2     1  UNL1       -0.2264
      8 H          65.3250   90.5952   11.8046 H       1  UNL1        0.1527
      9 O          67.2364   92.5552   12.2779 O.3     1  UNL1       -0.4274
     10 C          67.1997   92.5911   10.7788 C.3     1  UNL1        0.2621
     11 C          67.0355   93.8995   10.0637 C.ar    1  UNL1        0.1323
     12 N          67.7550   94.3187    8.8161 N.ar    1  UNL1       -0.2374
     13 C          67.2871   95.6966    8.4520 C.ar    1  UNL1        0.1062
     14 C          66.2785   96.1290    9.4746 C.ar    1  UNL1        0.0573
     15 S          66.1230   95.0182   10.4707 S.2     1  UNL1       -0.0666
     16 C          63.9304   90.5311   14.8513 C.3     1  UNL1        0.0474
     17 C          63.8068   89.1263   15.3625 C.ar    1  UNL1       -0.0205
     18 C          64.4336   87.9943   14.6038 C.ar    1  UNL1       -0.0042
     19 C          64.3100   86.5895   15.1151 C.ar    1  UNL1       -0.0003
     20 C          63.5597   86.3168   16.3850 C.ar    1  UNL1       -0.0000
     21 C          62.9329   87.4489   17.1436 C.ar    1  UNL1       -0.0003
     22 C          63.0565   88.8536   16.6324 C.ar    1  UNL1       -0.0042
     23 C          62.7061   88.4391   11.5207 C.3     1  UNL1        0.0888
     24 C          62.0002   87.3660   10.7459 C.3     1  UNL1        0.0948
     25 O          59.8100   89.2301    9.8926 O.2     1  UNL1       -0.2264
     26 C          60.6131   88.4946    8.8611 C.2     1  UNL1        0.4020
     27 N          61.7082   87.5626    9.2878 N.am    1  UNL1       -0.2706
     28 H          62.2354   87.0799    8.6108 H       1  UNL1        0.1527
     29 O          60.3211   88.6912    7.4030 O.3     1  UNL1       -0.4291
     30 C          58.9801   89.2044    6.9692 C.3     1  UNL1        0.2447
     31 C          58.8909   90.3058    5.9548 C.ar    1  UNL1        0.0714
     32 C          57.6287   90.9435    5.4544 C.ar    1  UNL1        0.1053
     33 N          58.0060   91.9947    4.4530 N.ar    1  UNL1       -0.2350
     34 C          59.5013   92.0067    4.3345 C.ar    1  UNL1        0.1343
     35 S          60.0481   90.9629    5.2627 S.2     1  UNL1       -0.0652
     36 C          61.5863   86.0965   11.4292 C.3     1  UNL1        0.0474
     37 C          62.5137   84.9177   11.4471 C.ar    1  UNL1       -0.0205
     38 C          63.1170   84.4185   10.1677 C.ar    1  UNL1       -0.0042
     39 C          64.0444   83.2396   10.1856 C.ar    1  UNL1       -0.0003
     40 C          64.3685   82.5600   11.4829 C.ar    1  UNL1       -0.0000
     41 C          63.7653   83.0593   12.7623 C.ar    1  UNL1       -0.0003
     42 C          62.8379   84.2381   12.7444 C.ar    1  UNL1       -0.0042
@<TRIPOS>BOND
     1    25    26    2
     2    26    27   am
     3    27    24    1
     4    24    23    1
     5    23     1    1
     6     1     3    1
     7     4     3    1
     8     4    16    1
     9    16    17    1
    10    17    18   ar
    11    18    19   ar
    12    19    20   ar
    13    20    21   ar
    14    21    22   ar
    15     4     5    1
    16     5     6   am
    17     6     7    2
    18     6     9    1
    19     9    10    1
    20    10    11    1
    21    11    12   ar
    22    12    13   ar
    23    13    14   ar
    24    14    15   ar
    25    24    36    1
    26    36    37    1
    27    37    38   ar
    28    38    39   ar
    29    39    40   ar
    30    40    41   ar
    31    41    42   ar
    32    26    29    1
    33    29    30    1
    34    30    31    1
    35    31    32   ar
    36    32    33   ar
    37    33    34   ar
    38    34    35   ar
    39    22    17   ar
    40    15    11   ar
    41    42    37   ar
    42    35    31   ar
    43    27    28    1
    44     1     2    1
    45     5     8    1
@<TRIPOS>MOLECULE
*****
 42 45 0 0 0
SMALL
GASTEIGER

@<TRIPOS>ATOM
      1 N          61.6209   89.7416   12.2854 N.3     1  UNL1       -0.2947
      2 H          61.3288   90.3913   13.0155 H       1  UNL1        0.1233
      3 C          61.0065   90.2244   11.0051 C.3     1  UNL1        0.0888
      4 C          60.5707   89.2371    9.9632 C.3     1  UNL1        0.0948
      5 N          60.4567   89.6614    8.5290 N.am    1  UNL1       -0.2706
      6 C          59.4914   88.9659    7.6155 C.2     1  UNL1        0.4020
      7 O          58.6401   87.8460    8.1363 O.2     1  UNL1       -0.2264
      8 H          61.0154   90.3965    8.1872 H       1  UNL1        0.1527
      9 O          59.3774   89.3902    6.1813 O.3     1  UNL1       -0.4274
     10 C          58.9509   90.7882    5.8445 C.3     1  UNL1        0.2621
     11 C          59.6062   91.5196    4.7106 C.ar    1  UNL1        0.1323
     12 N          58.9270   92.4560    3.7556 N.ar    1  UNL1       -0.2374
     13 C          59.9568   92.9581    2.7874 C.ar    1  UNL1        0.1062
     14 C          61.2724   92.3320    3.1439 C.ar    1  UNL1        0.0573
     15 S          61.0557   91.4430    4.3325 S.2     1  UNL1       -0.0666
     16 C          60.2490   87.8256   10.3556 C.3     1  UNL1        0.0474
     17 C          61.2680   86.7421   10.1607 C.ar    1  UNL1       -0.0205
     18 C          61.8659   86.5100    8.8048 C.ar    1  UNL1       -0.0042
     19 C          62.8848   85.4266    8.6100 C.ar    1  UNL1       -0.0003
     20 C          63.3058   84.5753    9.7711 C.ar    1  UNL1       -0.0000
     21 C          62.7079   84.8075   11.1270 C.ar    1  UNL1       -0.0003
     22 C          61.6889   85.8909   11.3218 C.ar    1  UNL1       -0.0042
     23 C          63.1104   89.6052   12.3978 C.3     1  UNL1        0.0888
     24 C          63.8830   90.5297   13.2915 C.3     1  UNL1        0.0948
     25 O          66.6089   91.1397   14.3853 O.2     1  UNL1       -0.2264
     26 C          66.0614   91.9445   13.2441 C.2     1  UNL1        0.4020
     27 N          64.6985   91.6395   12.6972 N.am    1  UNL1       -0.2706
     28 H          64.3391   92.1678   11.9482 H       1  UNL1        0.1527
     29 O          66.8769   93.0544   12.6499 O.3     1  UNL1       -0.4291
     30 C          66.1956   94.2592   12.0719 C.3     1  UNL1        0.2447
     31 C          66.6495   94.8185   10.7561 C.ar    1  UNL1        0.0714
     32 C          66.6934   96.2709   10.3835 C.ar    1  UNL1        0.1053
     33 N          67.2102   96.3735    8.9790 N.ar    1  UNL1       -0.2350
     34 C          67.4857   94.9847    8.4838 C.ar    1  UNL1        0.1343
     35 S          67.1392   94.0237    9.5821 S.2     1  UNL1       -0.0652
     36 C          63.8400   90.3443   14.7793 C.3     1  UNL1        0.0474
     37 C          63.7440   88.9649   15.3608 C.ar    1  UNL1       -0.0205
     38 C          62.9989   88.7418   16.6434 C.ar    1  UNL1       -0.0042
     39 C          62.9030   87.3624   17.2248 C.ar    1  UNL1       -0.0003
     40 C          63.5521   86.2061   16.5237 C.ar    1  UNL1       -0.0000
     41 C          64.2972   86.4292   15.2412 C.ar    1  UNL1       -0.0003
     42 C          64.3932   87.8086   14.6597 C.ar    1  UNL1       -0.0042
@<TRIPOS>BOND
     1    25    26    2
     2    26    27   am
     3    27    24    1
     4    24    23    1
     5    23     1    1
     6     1     3    1
     7     4     3    1
     8     4    16    1
     9    16    17    1
    10    17    18   ar
    11    18    19   ar
    12    19    20   ar
    13    20    21   ar
    14    21    22   ar
    15     4     5    1
    16     5     6   am
    17     6     7    2
    18     6     9    1
    19     9    10    1
    20    10    11    1
    21    11    12   ar
    22    12    13   ar
    23    13    14   ar
    24    14    15   ar
    25    24    36    1
    26    36    37    1
    27    37    38   ar
    28    38    39   ar
    29    39    40   ar
    30    40    41   ar
    31    41    42   ar
    32    26    29    1
    33    29    30    1
    34    30    31    1
    35    31    32   ar
    36    32    33   ar
    37    33    34   ar
    38    34    35   ar
    39    22    17   ar
    40    15    11   ar
    41    42    37   ar
    42    35    31   ar
    43    27    28    1
    44     1     2    1
    45     5     8    1
@<TRIPOS>MOLECULE
*****
 42 45 0 0 0
SMALL
GASTEIGER

@<TRIPOS>ATOM
      1 N          62.0371   89.9632   11.8252 N.3     1  UNL1       -0.2947
      2 H          62.0234   90.9027   11.4283 H       1  UNL1        0.1233
      3 C          62.5466   90.0939   13.2299 C.3     1  UNL1        0.0888
      4 C          63.9965   90.3884   13.4776 C.3     1  UNL1        0.0948
      5 N          64.6008   91.6627   12.9667 N.am    1  UNL1       -0.2706
      6 C          65.6537   92.3679   13.7694 C.2     1  UNL1        0.4020
      7 O          66.1020   91.7989   15.0828 O.2     1  UNL1       -0.2264
      8 H          64.3065   92.0361   12.1047 H       1  UNL1        0.1527
      9 O          66.2580   93.6422   13.2586 O.3     1  UNL1       -0.4274
     10 C          65.9757   94.0973   11.8575 C.3     1  UNL1        0.2621
     11 C          66.8912   93.6952   10.7394 C.ar    1  UNL1        0.1323
     12 N          67.7147   92.4429   10.6813 N.ar    1  UNL1       -0.2374
     13 C          68.4764   92.4485    9.3891 C.ar    1  UNL1        0.1062
     14 C          68.1237   93.7044    8.6486 C.ar    1  UNL1        0.0573
     15 S          67.1440   94.4749    9.4832 S.2     1  UNL1       -0.0666
     16 C          64.8419   89.4086   14.2360 C.3     1  UNL1        0.0474
     17 C          64.2019   88.4560   15.2021 C.ar    1  UNL1       -0.0205
     18 C          63.3917   88.9827   16.3493 C.ar    1  UNL1       -0.0042
     19 C          62.7519   88.0302   17.3153 C.ar    1  UNL1       -0.0003
     20 C          62.9222   86.5510   17.1341 C.ar    1  UNL1       -0.0000
     21 C          63.7324   86.0243   15.9869 C.ar    1  UNL1       -0.0003
     22 C          64.3723   86.9768   15.0209 C.ar    1  UNL1       -0.0042
     23 C          60.6851   89.3657   11.5703 C.3     1  UNL1        0.0888
     24 C          60.5692   88.0419   10.8745 C.3     1  UNL1        0.0948
     25 O          63.1812   87.1285   12.0334 O.2     1  UNL1       -0.2264
     26 C          61.9402   86.3132   12.2463 C.2     1  UNL1        0.4020
     27 N          60.6343   86.7699   11.6669 N.am    1  UNL1       -0.2706
     28 H          59.8198   86.2348   11.8066 H       1  UNL1        0.1527
     29 O          62.0053   85.0412   13.0387 O.3     1  UNL1       -0.4291
     30 C          63.1168   84.0634   12.7975 C.3     1  UNL1        0.2447
     31 C          62.8492   82.5895   12.8754 C.ar    1  UNL1        0.0714
     32 C          63.0553   81.5964   11.7702 C.ar    1  UNL1        0.1053
     33 N          62.6619   80.2430   12.2840 N.ar    1  UNL1       -0.2350
     34 C          62.2129   80.3998   13.7066 C.ar    1  UNL1        0.1343
     35 S          62.3286   81.8499   14.0721 S.2     1  UNL1       -0.0652
     36 C          60.3883   87.9900    9.3864 C.3     1  UNL1        0.0474
     37 C          60.9912   86.8666    8.5962 C.ar    1  UNL1       -0.0205
     38 C          60.1501   86.1024    7.6172 C.ar    1  UNL1       -0.0042
     39 C          60.7530   84.9790    6.8270 C.ar    1  UNL1       -0.0003
     40 C          62.1970   84.6197    7.0159 C.ar    1  UNL1       -0.0000
     41 C          63.0381   85.3838    7.9949 C.ar    1  UNL1       -0.0003
     42 C          62.4352   86.5073    8.7851 C.ar    1  UNL1       -0.0042
@<TRIPOS>BOND
     1    25    26    2
     2    26    27   am
     3    27    24    1
     4    24    23    1
     5    23     1    1
     6     1     3    1
     7     4     3    1
     8     4    16    1
     9    16    17    1
    10    17    18   ar
    11    18    19   ar
    12    19    20   ar
    13    20    21   ar
    14    21    22   ar
    15     4     5    1
    16     5     6   am
    17     6     7    2
    18     6     9    1
    19     9    10    1
    20    10    11    1
    21    11    12   ar
    22    12    13   ar
    23    13    14   ar
    24    14    15   ar
    25    24    36    1
    26    36    37    1
    27    37    38   ar
    28    38    39   ar
    29    39    40   ar
    30    40    41   ar
    31    41    42   ar
    32    26    29    1
    33    29    30    1
    34    30    31    1
    35    31    32   ar
    36    32    33   ar
    37    33    34   ar
    38    34    35   ar
    39    22    17   ar
    40    15    11   ar
    41    42    37   ar
    42    35    31   ar
    43    27    28    1
    44     1     2    1
    45     5     8    1
@<TRIPOS>MOLECULE
*****
 42 45 0 0 0
SMALL
GASTEIGER

@<TRIPOS>ATOM
      1 N          61.6626   89.6208   12.3538 N.3     1  UNL1       -0.2947
      2 H          61.3868   88.6553   12.5332 H       1  UNL1        0.1233
      3 C          63.1616   89.6571   12.3911 C.3     1  UNL1        0.0888
      4 C          63.8661   90.5927   13.3285 C.3     1  UNL1        0.0948
      5 N          64.6829   91.7265   12.7831 N.am    1  UNL1       -0.2706
      6 C          66.0348   92.0230   13.3616 C.2     1  UNL1        0.4020
      7 O          66.5698   91.1858   14.4853 O.2     1  UNL1       -0.2264
      8 H          64.3317   92.2760   12.0456 H       1  UNL1        0.1527
      9 O          66.8516   93.1568   12.8163 O.3     1  UNL1       -0.4274
     10 C          66.1748   94.3084   12.1338 C.3     1  UNL1        0.2621
     11 C          66.6580   94.7742   10.7923 C.ar    1  UNL1        0.1323
     12 N          66.8269   96.2015   10.3629 N.ar    1  UNL1       -0.2374
     13 C          67.3304   96.2039    8.9499 C.ar    1  UNL1        0.1062
     14 C          67.4726   94.7782    8.5060 C.ar    1  UNL1        0.0573
     15 S          67.0571   93.8946    9.6447 S.2     1  UNL1       -0.0666
     16 C          63.7538   90.3944   14.8110 C.3     1  UNL1        0.0474
     17 C          63.7020   89.0076   15.3805 C.ar    1  UNL1       -0.0205
     18 C          62.9998   88.7571   16.6820 C.ar    1  UNL1       -0.0042
     19 C          62.9480   87.3704   17.2514 C.ar    1  UNL1       -0.0003
     20 C          63.5983   86.2342   16.5192 C.ar    1  UNL1       -0.0000
     21 C          64.3005   86.4847   15.2177 C.ar    1  UNL1       -0.0003
     22 C          64.3523   87.8714   14.6483 C.ar    1  UNL1       -0.0042
     23 C          60.9324   90.0573   11.1183 C.3     1  UNL1        0.0888
     24 C          60.5708   89.0513   10.0660 C.3     1  UNL1        0.0948
     25 O          58.6109   87.7229    8.2238 O.2     1  UNL1       -0.2264
     26 C          59.5148   88.8019    7.7054 C.2     1  UNL1        0.4020
     27 N          60.4947   89.4660    8.6265 N.am    1  UNL1       -0.2706
     28 H          61.0880   90.1742    8.2863 H       1  UNL1        0.1527
     29 O          59.4387   89.2167    6.2659 O.3     1  UNL1       -0.4291
     30 C          58.9762   90.5976    5.9068 C.3     1  UNL1        0.2447
     31 C          59.6929   91.3757    4.8433 C.ar    1  UNL1        0.0714
     32 C          61.1411   91.2402    4.4765 C.ar    1  UNL1        0.1053
     33 N          61.4304   92.2067    3.3664 N.ar    1  UNL1       -0.2350
     34 C          60.1611   92.9394    3.0471 C.ar    1  UNL1        0.1343
     35 S          59.0873   92.4258    3.9599 S.2     1  UNL1       -0.0652
     36 C          60.2853   87.6305   10.4533 C.3     1  UNL1        0.0474
     37 C          61.3255   86.5713   10.2392 C.ar    1  UNL1       -0.0205
     38 C          61.7850   85.7276   11.3912 C.ar    1  UNL1       -0.0042
     39 C          62.8252   84.6684   11.1772 C.ar    1  UNL1       -0.0003
     40 C          63.4061   84.4528    9.8111 C.ar    1  UNL1       -0.0000
     41 C          62.9467   85.2964    8.6591 C.ar    1  UNL1       -0.0003
     42 C          61.9064   86.3557    8.8732 C.ar    1  UNL1       -0.0042
@<TRIPOS>BOND
     1    25    26    2
     2    26    27   am
     3    27    24    1
     4    24    23    1
     5    23     1    1
     6     1     3    1
     7     4     3    1
     8     4    16    1
     9    16    17    1
    10    17    18   ar
    11    18    19   ar
    12    19    20   ar
    13    20    21   ar
    14    21    22   ar
    15     4     5    1
    16     5     6   am
    17     6     7    2
    18     6     9    1
    19     9    10    1
    20    10    11    1
    21    11    12   ar
    22    12    13   ar
    23    13    14   ar
    24    14    15   ar
    25    24    36    1
    26    36    37    1
    27    37    38   ar
    28    38    39   ar
    29    39    40   ar
    30    40    41   ar
    31    41    42   ar
    32    26    29    1
    33    29    30    1
    34    30    31    1
    35    31    32   ar
    36    32    33   ar
    37    33    34   ar
    38    34    35   ar
    39    22    17   ar
    40    15    11   ar
    41    42    37   ar
    42    35    31   ar
    43    27    28    1
    44     1     2    1
    45     5     8    1
@<TRIPOS>MOLECULE
*****
 42 45 0 0 0
SMALL
GASTEIGER

@<TRIPOS>ATOM
      1 N          62.4934   89.4873   11.6981 N.3     1  UNL1       -0.2947
      2 H          61.5175   89.4849   11.4017 H       1  UNL1        0.1233
      3 C          62.5424   90.1916   13.0216 C.3     1  UNL1        0.0888
      4 C          63.8629   90.5922   13.6096 C.3     1  UNL1        0.0948
      5 N          64.8606   91.3382   12.7741 N.am    1  UNL1       -0.2706
      6 C          65.6647   92.4499   13.3804 C.2     1  UNL1        0.4020
      7 O          65.4710   92.8157   14.8221 O.2     1  UNL1       -0.2264
      8 H          64.9877   91.0981   11.8278 H       1  UNL1        0.1527
      9 O          66.6624   93.1959   12.5448 O.3     1  UNL1       -0.4274
     10 C          66.4020   94.6223   12.1610 C.3     1  UNL1        0.2621
     11 C          66.6149   95.0688   10.7449 C.ar    1  UNL1        0.1323
     12 N          67.6656   94.5536    9.8065 N.ar    1  UNL1       -0.2374
     13 C          67.5146   95.2753    8.5002 C.ar    1  UNL1        0.1062
     14 C          66.3705   96.2365    8.6312 C.ar    1  UNL1        0.0573
     15 S          65.8146   96.1089   10.0185 S.2     1  UNL1       -0.0666
     16 C          64.1856   90.2469   15.0332 C.3     1  UNL1        0.0474
     17 C          63.9137   88.8652   15.5500 C.ar    1  UNL1       -0.0205
     18 C          64.4087   87.6697   14.7911 C.ar    1  UNL1       -0.0042
     19 C          64.1368   86.2881   15.3079 C.ar    1  UNL1       -0.0003
     20 C          63.3699   86.1019   16.5836 C.ar    1  UNL1       -0.0000
     21 C          62.8749   87.2974   17.3424 C.ar    1  UNL1       -0.0003
     22 C          63.1469   88.6790   16.8256 C.ar    1  UNL1       -0.0042
     23 C          62.9849   88.0749   11.5816 C.3     1  UNL1        0.0888
     24 C          62.0169   86.9651   11.2963 C.3     1  UNL1        0.0948
     25 O          62.9655   85.7484    8.7235 O.2     1  UNL1       -0.2264
     26 C          62.9673   84.9345    9.9835 C.2     1  UNL1        0.4020
     27 N          62.4930   85.5429   11.2699 N.am    1  UNL1       -0.2706
     28 H          62.4942   85.0088   12.0969 H       1  UNL1        0.1527
     29 O          63.4435   83.5124    9.9571 O.3     1  UNL1       -0.4291
     30 C          64.3545   83.0063   11.0358 C.3     1  UNL1        0.2447
     31 C          63.7782   82.4043   12.2830 C.ar    1  UNL1        0.0714
     32 C          63.9029   82.9618   13.6701 C.ar    1  UNL1        0.1053
     33 N          63.1778   82.0412   14.6064 N.ar    1  UNL1       -0.2350
     34 C          62.6050   80.9148   13.7982 C.ar    1  UNL1        0.1343
     35 S          62.9761   81.1393   12.3622 S.2     1  UNL1       -0.0652
     36 C          60.5728   87.2775   11.0373 C.3     1  UNL1        0.0474
     37 C          60.1258   87.6711    9.6607 C.ar    1  UNL1       -0.0205
     38 C          60.1922   89.1071    9.2324 C.ar    1  UNL1       -0.0042
     39 C          59.7452   89.5007    7.8558 C.ar    1  UNL1       -0.0003
     40 C          59.2316   88.4583    6.9073 C.ar    1  UNL1       -0.0000
     41 C          59.1652   87.0223    7.3355 C.ar    1  UNL1       -0.0003
     42 C          59.6122   86.6287    8.7122 C.ar    1  UNL1       -0.0042
@<TRIPOS>BOND
     1    25    26    2
     2    26    27   am
     3    27    24    1
     4    24    23    1
     5    23     1    1
     6     1     3    1
     7     4     3    1
     8     4    16    1
     9    16    17    1
    10    17    18   ar
    11    18    19   ar
    12    19    20   ar
    13    20    21   ar
    14    21    22   ar
    15     4     5    1
    16     5     6   am
    17     6     7    2
    18     6     9    1
    19     9    10    1
    20    10    11    1
    21    11    12   ar
    22    12    13   ar
    23    13    14   ar
    24    14    15   ar
    25    24    36    1
    26    36    37    1
    27    37    38   ar
    28    38    39   ar
    29    39    40   ar
    30    40    41   ar
    31    41    42   ar
    32    26    29    1
    33    29    30    1
    34    30    31    1
    35    31    32   ar
    36    32    33   ar
    37    33    34   ar
    38    34    35   ar
    39    22    17   ar
    40    15    11   ar
    41    42    37   ar
    42    35    31   ar
    43    27    28    1
    44     1     2    1
    45     5     8    1
@<TRIPOS>MOLECULE
*****
 42 45 0 0 0
SMALL
GASTEIGER

@<TRIPOS>ATOM
      1 N          61.7615   89.4159   12.2057 N.3     1  UNL1       -0.2947
      2 H          61.3420   89.9560   12.9625 H       1  UNL1        0.1233
      3 C          61.1921   89.9503   10.9251 C.3     1  UNL1        0.0888
      4 C          60.6750   89.0046    9.8818 C.3     1  UNL1        0.0948
      5 N          60.4891   89.4746    8.4695 N.am    1  UNL1       -0.2706
      6 C          59.4841   88.8025    7.5816 C.2     1  UNL1        0.4020
      7 O          58.6651   87.6605    8.1059 O.2     1  UNL1       -0.2264
      8 H          61.0266   90.2242    8.1254 H       1  UNL1        0.1527
      9 O          59.2981   89.2726    6.1693 O.3     1  UNL1       -0.4274
     10 C          58.8973   90.6923    5.8980 C.3     1  UNL1        0.2621
     11 C          59.5680   91.4643    4.8007 C.ar    1  UNL1        0.1323
     12 N          58.9109   92.4674    3.8996 N.ar    1  UNL1       -0.2374
     13 C          59.9503   92.9919    2.9538 C.ar    1  UNL1        0.1062
     14 C          61.2498   92.3129    3.2703 C.ar    1  UNL1        0.0573
     15 S          61.0135   91.3688    4.4118 S.2     1  UNL1       -0.0666
     16 C          60.3438   87.5889   10.2509 C.3     1  UNL1        0.0474
     17 C          61.3702   86.5089   10.0771 C.ar    1  UNL1       -0.0205
     18 C          61.7700   85.6591   11.2467 C.ar    1  UNL1       -0.0042
     19 C          62.7963   84.5791   11.0730 C.ar    1  UNL1       -0.0003
     20 C          63.4228   84.3489    9.7297 C.ar    1  UNL1       -0.0000
     21 C          63.0230   85.1986    8.5601 C.ar    1  UNL1       -0.0003
     22 C          61.9967   86.2786    8.7338 C.ar    1  UNL1       -0.0042
     23 C          63.2442   89.4327   12.4319 C.3     1  UNL1        0.0888
     24 C          63.7933   89.8001   13.7787 C.3     1  UNL1        0.0948
     25 O          62.0047   89.4768   16.1653 O.2     1  UNL1       -0.2264
     26 C          63.1839   88.5678   15.9832 C.2     1  UNL1        0.4020
     27 N          64.0782   88.7294   14.7899 N.am    1  UNL1       -0.2706
     28 H          64.8522   88.1328   14.6704 H       1  UNL1        0.1527
     29 O          63.4688   87.4972   16.9945 O.3     1  UNL1       -0.4291
     30 C          62.8556   86.1371   16.8398 C.3     1  UNL1        0.2447
     31 C          63.4040   85.1780   15.8251 C.ar    1  UNL1        0.0714
     32 C          64.6867   85.3379   15.0639 C.ar    1  UNL1        0.1053
     33 N          64.8414   84.1494   14.1619 N.ar    1  UNL1       -0.2350
     34 C          63.6546   83.2551   14.3656 C.ar    1  UNL1        0.1343
     35 S          62.7662   83.8908   15.3935 S.2     1  UNL1       -0.0652
     36 C          64.0575   91.2380   14.1141 C.3     1  UNL1        0.0474
     37 C          65.4412   91.6784   14.4900 C.ar    1  UNL1       -0.0205
     38 C          65.6907   92.3051   15.8298 C.ar    1  UNL1       -0.0042
     39 C          67.0744   92.7456   16.2058 C.ar    1  UNL1       -0.0003
     40 C          68.2086   92.5593   15.2420 C.ar    1  UNL1       -0.0000
     41 C          67.9591   91.9326   13.9022 C.ar    1  UNL1       -0.0003
     42 C          66.5754   91.4922   13.5263 C.ar    1  UNL1       -0.0042
@<TRIPOS>BOND
     1    25    26    2
     2    26    27   am
     3    27    24    1
     4    24    23    1
     5    23     1    1
     6     1     3    1
     7     4     3    1
     8     4    16    1
     9    16    17    1
    10    17    18   ar
    11    18    19   ar
    12    19    20   ar
    13    20    21   ar
    14    21    22   ar
    15     4     5    1
    16     5     6   am
    17     6     7    2
    18     6     9    1
    19     9    10    1
    20    10    11    1
    21    11    12   ar
    22    12    13   ar
    23    13    14   ar
    24    14    15   ar
    25    24    36    1
    26    36    37    1
    27    37    38   ar
    28    38    39   ar
    29    39    40   ar
    30    40    41   ar
    31    41    42   ar
    32    26    29    1
    33    29    30    1
    34    30    31    1
    35    31    32   ar
    36    32    33   ar
    37    33    34   ar
    38    34    35   ar
    39    22    17   ar
    40    15    11   ar
    41    42    37   ar
    42    35    31   ar
    43    27    28    1
    44     1     2    1
    45     5     8    1
@<TRIPOS>MOLECULE
*****
 42 45 0 0 0
SMALL
GASTEIGER

@<TRIPOS>ATOM
      1 N          62.2524   86.4760   12.3330 N.3     1  UNL1       -0.2947
      2 H          61.6141   86.1865   11.5920 H       1  UNL1        0.1233
      3 C          63.1846   85.3262   12.5752 C.3     1  UNL1        0.0888
      4 C          63.7929   85.1266   13.9318 C.3     1  UNL1        0.0948
      5 N          63.9522   86.2931   14.8612 N.am    1  UNL1       -0.2706
      6 C          63.1218   86.3780   16.1075 C.2     1  UNL1        0.4020
      7 O          62.1320   85.2964   16.4244 O.2     1  UNL1       -0.2264
      8 H          64.6019   87.0030   14.6533 H       1  UNL1        0.1527
      9 O          63.2812   87.5446   17.0369 O.3     1  UNL1       -0.4274
     10 C          62.7012   88.8789   16.6721 C.3     1  UNL1        0.2621
     11 C          63.5880   89.9578   16.1247 C.ar    1  UNL1        0.1323
     12 N          63.7518   91.3367   16.6919 N.ar    1  UNL1       -0.2374
     13 C          64.7318   92.0783   15.8318 C.ar    1  UNL1        0.1062
     14 C          65.1736   91.1577   14.7331 C.ar    1  UNL1        0.0573
     15 S          64.4667   89.8472   14.9141 S.2     1  UNL1       -0.0666
     16 C          64.2417   83.7606   14.3590 C.3     1  UNL1        0.0474
     17 C          63.4211   82.5562   14.0034 C.ar    1  UNL1       -0.0205
     18 C          63.9535   81.5468   13.0300 C.ar    1  UNL1       -0.0042
     19 C          63.1329   80.3425   12.6745 C.ar    1  UNL1       -0.0003
     20 C          61.7800   80.1477   13.2923 C.ar    1  UNL1       -0.0000
     21 C          61.2477   81.1572   14.2657 C.ar    1  UNL1       -0.0003
     22 C          62.0682   82.3614   14.6213 C.ar    1  UNL1       -0.0042
     23 C          62.7999   87.8144   11.9345 C.3     1  UNL1        0.0888
     24 C          62.3622   88.4512   10.6489 C.3     1  UNL1        0.0948
     25 O          62.6452   90.9378   12.3031 O.2     1  UNL1       -0.2264
     26 C          63.2505   90.8762   10.9321 C.2     1  UNL1        0.4020
     27 N          63.1090   89.6330   10.1050 N.am    1  UNL1       -0.2706
     28 H          63.5063   89.5925    9.2051 H       1  UNL1        0.1527
     29 O          63.9973   92.0580   10.3882 O.3     1  UNL1       -0.4291
     30 C          65.1366   92.6477   11.1654 C.3     1  UNL1        0.2447
     31 C          66.3645   93.1270   10.4494 C.ar    1  UNL1        0.0714
     32 C          67.6202   92.3372   10.2271 C.ar    1  UNL1        0.1053
     33 N          68.5840   93.2023    9.4702 N.ar    1  UNL1       -0.2350
     34 C          67.9239   94.5267    9.2248 C.ar    1  UNL1        0.1343
     35 S          66.5522   94.4801    9.8299 S.2     1  UNL1       -0.0652
     36 C          61.1778   87.9064    9.9072 C.3     1  UNL1        0.0474
     37 C          61.3660   86.8274    8.8823 C.ar    1  UNL1       -0.0205
     38 C          62.6825   86.1166    8.7749 C.ar    1  UNL1       -0.0042
     39 C          62.8708   85.0375    7.7500 C.ar    1  UNL1       -0.0003
     40 C          61.7426   84.6693    6.8327 C.ar    1  UNL1       -0.0000
     41 C          60.4261   85.3801    6.9402 C.ar    1  UNL1       -0.0003
     42 C          60.2378   86.4592    7.9650 C.ar    1  UNL1       -0.0042
@<TRIPOS>BOND
     1    25    26    2
     2    26    27   am
     3    27    24    1
     4    24    23    1
     5    23     1    1
     6     1     3    1
     7     4     3    1
     8     4    16    1
     9    16    17    1
    10    17    18   ar
    11    18    19   ar
    12    19    20   ar
    13    20    21   ar
    14    21    22   ar
    15     4     5    1
    16     5     6   am
    17     6     7    2
    18     6     9    1
    19     9    10    1
    20    10    11    1
    21    11    12   ar
    22    12    13   ar
    23    13    14   ar
    24    14    15   ar
    25    24    36    1
    26    36    37    1
    27    37    38   ar
    28    38    39   ar
    29    39    40   ar
    30    40    41   ar
    31    41    42   ar
    32    26    29    1
    33    29    30    1
    34    30    31    1
    35    31    32   ar
    36    32    33   ar
    37    33    34   ar
    38    34    35   ar
    39    22    17   ar
    40    15    11   ar
    41    42    37   ar
    42    35    31   ar
    43    27    28    1
    44     1     2    1
    45     5     8    1
