@<TRIPOS>MOLECULE
*****
 39 43 0 0 0
SMALL
GASTEIGER

@<TRIPOS>ATOM
      1 C          65.2731   91.9232   13.1477 C.ar    1  UNL1        0.1399
      2 C          66.5056   92.5289   12.5445 C.ar    1  UNL1        0.0554
      3 C          66.5678   92.7897   11.0686 C.ar    1  UNL1        0.1047
      4 N          65.3976   92.4447   10.1960 N.ar    1  UNL1       -0.2119
      5 C          64.1650   91.8389   10.7993 C.ar    1  UNL1        0.2218
      6 N          64.1028   91.5781   12.2751 N.ar    1  UNL1       -0.1983
      7 N          65.2108   91.6624   14.6236 N.pl3   1  UNL1       -0.2705
      8 C          65.7325   92.6854   15.5886 C.3     1  UNL1        0.1187
      9 C          62.1032   85.9526   17.5171 C.3     1  UNL1        0.0518
     10 C          63.0461   86.3970   16.4385 C.ar    1  UNL1        0.0578
     11 C          63.4591   87.8111   16.1560 C.ar    1  UNL1        0.0326
     12 C          63.0923   89.1126   16.8053 C.ar    1  UNL1        0.0040
     13 C          63.6762   90.3963   16.2945 C.ar    1  UNL1        0.0150
     14 C          64.6269   90.3786   15.1344 C.ar    1  UNL1        0.0543
     15 C          64.9937   89.0771   14.4851 C.ar    1  UNL1        0.0357
     16 C          64.4098   87.7934   14.9959 C.ar    1  UNL1        0.1033
     17 N          64.5843   86.3683   14.5614 N.ar    1  UNL1       -0.1692
     18 N          63.7415   85.5053   15.4529 N.ar    1  UNL1       -0.2504
     19 C          63.6161   84.0127   15.3730 C.3     1  UNL1        0.1534
     20 C          63.5480   83.3363   14.0359 C.ar    1  UNL1        0.0021
     21 C          62.4266   82.3876   13.7316 C.ar    1  UNL1       -0.0023
     22 C          62.3585   81.7112   12.3945 C.ar    1  UNL1       -0.0003
     23 C          63.4116   81.9835   11.3617 C.ar    1  UNL1       -0.0000
     24 C          64.5329   82.9322   11.6660 C.ar    1  UNL1       -0.0003
     25 C          64.6011   83.6086   13.0031 C.ar    1  UNL1       -0.0023
     26 N          62.9947   91.4939    9.9267 N.pl3   1  UNL1       -0.2825
     27 H          62.8675   91.9578    9.0678 H       1  UNL1        0.1551
     28 C          62.0184   90.4420   10.3628 C.ar    1  UNL1        0.0518
     29 C          60.6889   90.8420   10.9308 C.ar    1  UNL1        0.0148
     30 C          59.7126   89.7901   11.3669 C.ar    1  UNL1        0.0026
     31 C          60.0656   88.3382   11.2350 C.ar    1  UNL1        0.0200
     32 C          61.3950   87.9382   10.6670 C.ar    1  UNL1        0.1229
     33 C          62.3714   88.9901   10.2309 C.ar    1  UNL1        0.0346
     34 S          61.7481   86.4863   10.5351 S.O2    1  UNL1        0.0572
     35 N          62.1011   85.0345   10.4032 N.3     1  UNL1       -0.2035
     36 O          61.5276   86.2990   12.0069 O.2     1  UNL1       -0.1532
     37 O          61.9685   86.6736    9.0633 O.2     1  UNL1       -0.1532
     38 H          62.0398   84.5853   11.3169 H       1  UNL1        0.1442
     39 H          63.0519   84.9470   10.0445 H       1  UNL1        0.1442
@<TRIPOS>BOND
     1     9    10    1
     2    10    11   ar
     3    11    12   ar
     4    12    13   ar
     5    13    14   ar
     6    14     7    1
     7     7     8    1
     8     7     1    1
     9     1     2   ar
    10     2     3   ar
    11     3     4   ar
    12     4     5   ar
    13     5    26    1
    14    26    28    1
    15    28    29   ar
    16    29    30   ar
    17    30    31   ar
    18    31    32   ar
    19    32    34    1
    20    34    35    1
    21    34    36    2
    22    34    37    2
    23    32    33   ar
    24     5     6   ar
    25    14    15   ar
    26    15    16   ar
    27    16    17   ar
    28    17    18   ar
    29    18    19    1
    30    19    20    1
    31    20    21   ar
    32    21    22   ar
    33    22    23   ar
    34    23    24   ar
    35    24    25   ar
    36    18    10   ar
    37    25    20   ar
    38    16    11   ar
    39     6     1   ar
    40    33    28   ar
    41    26    27    1
    42    35    38    1
    43    35    39    1
@<TRIPOS>MOLECULE
*****
 39 43 0 0 0
SMALL
GASTEIGER

@<TRIPOS>ATOM
      1 C          65.0182   91.9374   13.0879 C.ar    1  UNL1        0.1399
      2 C          66.0701   92.7710   12.4181 C.ar    1  UNL1        0.0554
      3 C          65.9583   93.0867   10.9559 C.ar    1  UNL1        0.1047
      4 N          64.7946   92.5689   10.1637 N.ar    1  UNL1       -0.2119
      5 C          63.7427   91.7352   10.8335 C.ar    1  UNL1        0.2218
      6 N          63.8545   91.4195   12.2957 N.ar    1  UNL1       -0.1983
      7 N          65.1300   91.6217   14.5501 N.pl3   1  UNL1       -0.2705
      8 C          65.7991   92.5920   15.4778 C.3     1  UNL1        0.1187
      9 C          62.1644   85.9001   17.5668 C.3     1  UNL1        0.0518
     10 C          63.0639   86.3477   16.4530 C.ar    1  UNL1        0.0578
     11 C          63.4582   87.7636   16.1531 C.ar    1  UNL1        0.0326
     12 C          63.1087   89.0642   16.8135 C.ar    1  UNL1        0.0040
     13 C          63.6660   90.3502   16.2792 C.ar    1  UNL1        0.0150
     14 C          64.5728   90.3356   15.0844 C.ar    1  UNL1        0.0543
     15 C          64.9223   89.0350   14.4239 C.ar    1  UNL1        0.0357
     16 C          64.3650   87.7490   14.9583 C.ar    1  UNL1        0.1033
     17 N          64.5311   86.3241   14.5198 N.ar    1  UNL1       -0.1692
     18 N          63.7270   85.4581   15.4436 N.ar    1  UNL1       -0.2504
     19 C          63.6070   83.9647   15.3708 C.3     1  UNL1        0.1534
     20 C          63.3542   83.2960   14.0522 C.ar    1  UNL1        0.0021
     21 C          63.0777   84.1238   12.8322 C.ar    1  UNL1       -0.0023
     22 C          62.8248   83.4551   11.5135 C.ar    1  UNL1       -0.0003
     23 C          62.8484   81.9586   11.4148 C.ar    1  UNL1       -0.0000
     24 C          63.1249   81.1307   12.6347 C.ar    1  UNL1       -0.0003
     25 C          63.3777   81.7994   13.9534 C.ar    1  UNL1       -0.0023
     26 N          62.5791   91.2174   10.0413 N.pl3   1  UNL1       -0.2825
     27 H          62.0869   91.8202    9.4382 H       1  UNL1        0.1551
     28 C          62.1653   89.7812   10.1678 C.ar    1  UNL1        0.0518
     29 C          62.7651   88.9194   11.2390 C.ar    1  UNL1        0.0148
     30 C          62.3514   87.4832   11.3655 C.ar    1  UNL1        0.0026
     31 C          61.3378   86.9087   10.4208 C.ar    1  UNL1        0.0200
     32 C          60.7379   87.7704    9.3496 C.ar    1  UNL1        0.1229
     33 C          61.1517   89.2067    9.2231 C.ar    1  UNL1        0.0346
     34 S          59.7242   87.1960    8.4048 S.O2    1  UNL1        0.0572
     35 N          58.7106   86.6215    7.4601 N.3     1  UNL1       -0.2035
     36 O          60.2216   85.8144    8.7113 O.2     1  UNL1       -0.1532
     37 O          59.2268   88.5775    8.0984 O.2     1  UNL1       -0.1532
     38 H          58.7997   85.6055    7.4425 H       1  UNL1        0.1442
     39 H          58.8697   86.9931    6.5236 H       1  UNL1        0.1442
@<TRIPOS>BOND
     1     9    10    1
     2    10    11   ar
     3    11    12   ar
     4    12    13   ar
     5    13    14   ar
     6    14     7    1
     7     7     8    1
     8     7     1    1
     9     1     2   ar
    10     2     3   ar
    11     3     4   ar
    12     4     5   ar
    13     5    26    1
    14    26    28    1
    15    28    29   ar
    16    29    30   ar
    17    30    31   ar
    18    31    32   ar
    19    32    34    1
    20    34    35    1
    21    34    36    2
    22    34    37    2
    23    32    33   ar
    24     5     6   ar
    25    14    15   ar
    26    15    16   ar
    27    16    17   ar
    28    17    18   ar
    29    18    19    1
    30    19    20    1
    31    20    21   ar
    32    21    22   ar
    33    22    23   ar
    34    23    24   ar
    35    24    25   ar
    36    18    10   ar
    37    25    20   ar
    38    16    11   ar
    39     6     1   ar
    40    33    28   ar
    41    26    27    1
    42    35    38    1
    43    35    39    1
@<TRIPOS>MOLECULE
*****
 39 43 0 0 0
SMALL
GASTEIGER

@<TRIPOS>ATOM
      1 C          60.8361   87.8990   10.4089 C.ar    1  UNL1        0.1399
      2 C          59.8985   87.8675    9.2385 C.ar    1  UNL1        0.0554
      3 C          60.0517   86.8127    8.1830 C.ar    1  UNL1        0.1047
      4 N          61.1424   85.7894    8.2980 N.ar    1  UNL1       -0.2119
      5 C          62.0800   85.8209    9.4685 C.ar    1  UNL1        0.2218
      6 N          61.9268   86.8757   10.5239 N.ar    1  UNL1       -0.1983
      7 N          60.6829   88.9537   11.4644 N.pl3   1  UNL1       -0.2705
      8 C          59.3328   89.2330   12.0553 C.3     1  UNL1        0.1187
      9 C          66.2605   92.3488   14.2921 C.3     1  UNL1        0.0518
     10 C          65.4780   92.1587   13.0266 C.ar    1  UNL1        0.0578
     11 C          64.2739   91.2801   12.8581 C.ar    1  UNL1        0.0326
     12 C          63.5370   90.3926   13.8169 C.ar    1  UNL1        0.0040
     13 C          62.3400   89.6172   13.3523 C.ar    1  UNL1        0.0150
     14 C          61.8800   89.7292   11.9290 C.ar    1  UNL1        0.0543
     15 C          62.6169   90.6168   10.9702 C.ar    1  UNL1        0.0357
     16 C          63.8139   91.3922   11.4348 C.ar    1  UNL1        0.1033
     17 N          64.7337   92.3400   10.7237 N.ar    1  UNL1       -0.1692
     18 N          65.7622   92.8137   11.7075 N.ar    1  UNL1       -0.2504
     19 C          66.8787   93.7738   11.4222 C.3     1  UNL1        0.1534
     20 C          66.7272   94.7998   10.3385 C.ar    1  UNL1        0.0021
     21 C          67.6631   94.7964    9.1662 C.ar    1  UNL1       -0.0023
     22 C          67.5115   95.8224    8.0826 C.ar    1  UNL1       -0.0003
     23 C          66.4240   96.8518    8.1711 C.ar    1  UNL1       -0.0000
     24 C          65.4882   96.8552    9.3433 C.ar    1  UNL1       -0.0003
     25 C          65.6397   95.8292   10.4271 C.ar    1  UNL1       -0.0023
     26 N          63.1707   84.7976    9.5834 N.pl3   1  UNL1       -0.2825
     27 H          63.8072   84.6713    8.8431 H       1  UNL1        0.1551
     28 C          63.2916   83.9668   10.8265 C.ar    1  UNL1        0.0518
     29 C          63.1817   82.4731   10.7439 C.ar    1  UNL1        0.0148
     30 C          63.3027   81.6423   11.9869 C.ar    1  UNL1        0.0026
     31 C          63.5335   82.3051   13.3125 C.ar    1  UNL1        0.0200
     32 C          63.6434   83.7988   13.3951 C.ar    1  UNL1        0.1229
     33 C          63.5225   84.6296   12.1521 C.ar    1  UNL1        0.0346
     34 S          63.8743   84.4617   14.7208 S.O2    1  UNL1        0.0572
     35 N          64.1052   85.1246   16.0464 N.3     1  UNL1       -0.2035
     36 O          63.6851   85.8054   14.0817 O.2     1  UNL1       -0.1532
     37 O          64.0636   83.1179   15.3598 O.2     1  UNL1       -0.1532
     38 H          64.0362   86.1364   15.9371 H       1  UNL1        0.1442
     39 H          65.0343   84.8823   16.3904 H       1  UNL1        0.1442
@<TRIPOS>BOND
     1     9    10    1
     2    10    11   ar
     3    11    12   ar
     4    12    13   ar
     5    13    14   ar
     6    14     7    1
     7     7     8    1
     8     7     1    1
     9     1     2   ar
    10     2     3   ar
    11     3     4   ar
    12     4     5   ar
    13     5    26    1
    14    26    28    1
    15    28    29   ar
    16    29    30   ar
    17    30    31   ar
    18    31    32   ar
    19    32    34    1
    20    34    35    1
    21    34    36    2
    22    34    37    2
    23    32    33   ar
    24     5     6   ar
    25    14    15   ar
    26    15    16   ar
    27    16    17   ar
    28    17    18   ar
    29    18    19    1
    30    19    20    1
    31    20    21   ar
    32    21    22   ar
    33    22    23   ar
    34    23    24   ar
    35    24    25   ar
    36    18    10   ar
    37    25    20   ar
    38    16    11   ar
    39     6     1   ar
    40    33    28   ar
    41    26    27    1
    42    35    38    1
    43    35    39    1
@<TRIPOS>MOLECULE
*****
 39 43 0 0 0
SMALL
GASTEIGER

@<TRIPOS>ATOM
      1 C          63.5206   88.8878   14.4047 C.ar    1  UNL1        0.1399
      2 C          63.1023   89.6468   15.6290 C.ar    1  UNL1        0.0554
      3 C          63.0912   88.9665   16.9658 C.ar    1  UNL1        0.1047
      4 N          63.4984   87.5273   17.0784 N.ar    1  UNL1       -0.2119
      5 C          63.9167   86.7682   15.8541 C.ar    1  UNL1        0.2218
      6 N          63.9278   87.4485   14.5172 N.ar    1  UNL1       -0.1983
      7 N          63.5317   89.5680   13.0679 N.pl3   1  UNL1       -0.2705
      8 C          64.3064   90.8386   12.8793 C.3     1  UNL1        0.1187
      9 C          60.1663   86.1529    7.8102 C.3     1  UNL1        0.0518
     10 C          60.3859   87.5028    8.4264 C.ar    1  UNL1        0.0578
     11 C          61.2409   87.7971    9.6232 C.ar    1  UNL1        0.0326
     12 C          62.0729   86.9130   10.5042 C.ar    1  UNL1        0.0040
     13 C          62.8365   87.5033   11.6524 C.ar    1  UNL1        0.0150
     14 C          62.7681   88.9777   11.9196 C.ar    1  UNL1        0.0543
     15 C          61.9361   89.8618   11.0387 C.ar    1  UNL1        0.0357
     16 C          61.1725   89.2715    9.8905 C.ar    1  UNL1        0.1033
     17 N          60.2752   89.8884    8.8588 N.ar    1  UNL1       -0.1692
     18 N          59.7891   88.7953    7.9540 N.ar    1  UNL1       -0.2504
     19 C          58.8678   88.9649    6.7824 C.3     1  UNL1        0.1534
     20 C          59.0408   90.1310    5.8550 C.ar    1  UNL1        0.0021
     21 C          60.4104   90.5121    5.3765 C.ar    1  UNL1       -0.0023
     22 C          60.5834   91.6783    4.4491 C.ar    1  UNL1       -0.0003
     23 C          59.3867   92.4633    4.0001 C.ar    1  UNL1       -0.0000
     24 C          58.0171   92.0823    4.4785 C.ar    1  UNL1       -0.0003
     25 C          57.8441   90.9161    5.4060 C.ar    1  UNL1       -0.0023
     26 N          64.3239   85.3290   15.9666 N.pl3   1  UNL1       -0.2825
     27 H          64.9940   85.0578   16.6349 H       1  UNL1        0.1551
     28 C          63.7101   84.3028   15.0609 C.ar    1  UNL1        0.0518
     29 C          62.5510   83.4788   15.5379 C.ar    1  UNL1        0.0148
     30 C          61.9372   82.4527   14.6322 C.ar    1  UNL1        0.0026
     31 C          62.4825   82.2505   13.2495 C.ar    1  UNL1        0.0200
     32 C          63.6416   83.0745   12.7726 C.ar    1  UNL1        0.1229
     33 C          64.2554   84.1006   13.6783 C.ar    1  UNL1        0.0346
     34 S          64.1870   82.8724   11.3899 S.O2    1  UNL1        0.0572
     35 N          64.7323   82.6702   10.0073 N.3     1  UNL1       -0.2035
     36 O          65.1594   81.8614   11.9213 O.2     1  UNL1       -0.1532
     37 O          63.2146   83.8833   10.8585 O.2     1  UNL1       -0.1532
     38 H          65.4794   81.9762   10.0346 H       1  UNL1        0.1442
     39 H          65.1014   83.5534    9.6548 H       1  UNL1        0.1442
@<TRIPOS>BOND
     1     9    10    1
     2    10    11   ar
     3    11    12   ar
     4    12    13   ar
     5    13    14   ar
     6    14     7    1
     7     7     8    1
     8     7     1    1
     9     1     2   ar
    10     2     3   ar
    11     3     4   ar
    12     4     5   ar
    13     5    26    1
    14    26    28    1
    15    28    29   ar
    16    29    30   ar
    17    30    31   ar
    18    31    32   ar
    19    32    34    1
    20    34    35    1
    21    34    36    2
    22    34    37    2
    23    32    33   ar
    24     5     6   ar
    25    14    15   ar
    26    15    16   ar
    27    16    17   ar
    28    17    18   ar
    29    18    19    1
    30    19    20    1
    31    20    21   ar
    32    21    22   ar
    33    22    23   ar
    34    23    24   ar
    35    24    25   ar
    36    18    10   ar
    37    25    20   ar
    38    16    11   ar
    39     6     1   ar
    40    33    28   ar
    41    26    27    1
    42    35    38    1
    43    35    39    1
@<TRIPOS>MOLECULE
*****
 39 43 0 0 0
SMALL
GASTEIGER

@<TRIPOS>ATOM
      1 C          61.4226   86.7299    9.0317 C.ar    1  UNL1        0.1399
      2 C          60.9996   86.3952    7.6320 C.ar    1  UNL1        0.0554
      3 C          61.5681   85.1892    6.9448 C.ar    1  UNL1        0.1047
      4 N          62.5597   84.3179    7.6571 N.ar    1  UNL1       -0.2119
      5 C          62.9828   84.6525    9.0569 C.ar    1  UNL1        0.2218
      6 N          62.4142   85.8585    9.7441 N.ar    1  UNL1       -0.1983
      7 N          60.8540   87.9358    9.7190 N.pl3   1  UNL1       -0.2705
      8 C          59.3720   88.1675    9.7234 C.3     1  UNL1        0.1187
      9 C          65.2489   92.8768   12.3464 C.3     1  UNL1        0.0518
     10 C          64.4507   91.6582   12.7042 C.ar    1  UNL1        0.0578
     11 C          63.5943   90.8589   11.7675 C.ar    1  UNL1        0.0326
     12 C          63.2921   91.0117   10.3062 C.ar    1  UNL1        0.0040
     13 C          62.3787   90.0374    9.6234 C.ar    1  UNL1        0.0150
     14 C          61.7675   88.9102   10.4018 C.ar    1  UNL1        0.0543
     15 C          62.0697   88.7574   11.8631 C.ar    1  UNL1        0.0357
     16 C          62.9831   89.7317   12.5459 C.ar    1  UNL1        0.1033
     17 N          63.4618   89.8345   13.9637 N.ar    1  UNL1       -0.1692
     18 N          64.3688   91.0252   14.0616 N.ar    1  UNL1       -0.2504
     19 C          65.0707   91.4995   15.2995 C.3     1  UNL1        0.1534
     20 C          66.4913   91.9746   15.2208 C.ar    1  UNL1        0.0021
     21 C          67.4447   91.3322   14.2573 C.ar    1  UNL1       -0.0023
     22 C          68.8653   91.8073   14.1786 C.ar    1  UNL1       -0.0003
     23 C          69.3325   92.9248   15.0634 C.ar    1  UNL1       -0.0000
     24 C          68.3791   93.5672   16.0269 C.ar    1  UNL1       -0.0003
     25 C          66.9585   93.0921   16.1057 C.ar    1  UNL1       -0.0023
     26 N          63.9744   83.7812    9.7692 N.pl3   1  UNL1       -0.2825
     27 H          64.8854   83.6775    9.4107 H       1  UNL1        0.1551
     28 C          63.5779   83.0679   11.0278 C.ar    1  UNL1        0.0518
     29 C          63.2882   81.5965   10.9965 C.ar    1  UNL1        0.0148
     30 C          62.8918   80.8832   12.2550 C.ar    1  UNL1        0.0026
     31 C          62.7850   81.6412   13.5449 C.ar    1  UNL1        0.0200
     32 C          63.0747   83.1126   13.5763 C.ar    1  UNL1        0.1229
     33 C          63.4711   83.8260   12.3177 C.ar    1  UNL1        0.0346
     34 S          62.9679   83.8708   14.8662 S.O2    1  UNL1        0.0572
     35 N          62.8612   84.6289   16.1561 N.3     1  UNL1       -0.2035
     36 O          63.9834   82.9578   15.4868 O.2     1  UNL1       -0.1532
     37 O          61.9525   84.7838   14.2456 O.2     1  UNL1       -0.1532
     38 H          63.4881   84.2154   16.8463 H       1  UNL1        0.1442
     39 H          61.9014   84.5840   16.4984 H       1  UNL1        0.1442
@<TRIPOS>BOND
     1     9    10    1
     2    10    11   ar
     3    11    12   ar
     4    12    13   ar
     5    13    14   ar
     6    14     7    1
     7     7     8    1
     8     7     1    1
     9     1     2   ar
    10     2     3   ar
    11     3     4   ar
    12     4     5   ar
    13     5    26    1
    14    26    28    1
    15    28    29   ar
    16    29    30   ar
    17    30    31   ar
    18    31    32   ar
    19    32    34    1
    20    34    35    1
    21    34    36    2
    22    34    37    2
    23    32    33   ar
    24     5     6   ar
    25    14    15   ar
    26    15    16   ar
    27    16    17   ar
    28    17    18   ar
    29    18    19    1
    30    19    20    1
    31    20    21   ar
    32    21    22   ar
    33    22    23   ar
    34    23    24   ar
    35    24    25   ar
    36    18    10   ar
    37    25    20   ar
    38    16    11   ar
    39     6     1   ar
    40    33    28   ar
    41    26    27    1
    42    35    38    1
    43    35    39    1
@<TRIPOS>MOLECULE
*****
 39 43 0 0 0
SMALL
GASTEIGER

@<TRIPOS>ATOM
      1 C          63.8748   86.3220   14.9766 C.ar    1  UNL1        0.1399
      2 C          64.6907   85.3789   15.8101 C.ar    1  UNL1        0.0554
      3 C          64.8693   83.9549   15.3739 C.ar    1  UNL1        0.1047
      4 N          64.2319   83.4739   14.1041 N.ar    1  UNL1       -0.2119
      5 C          63.4159   84.4170   13.2705 C.ar    1  UNL1        0.2218
      6 N          63.2374   85.8410   13.7067 N.ar    1  UNL1       -0.1983
      7 N          63.6962   87.7460   15.4129 N.pl3   1  UNL1       -0.2705
      8 C          63.2608   88.0517   16.8153 C.3     1  UNL1        0.1187
      9 C          64.5306   92.6987   10.3724 C.3     1  UNL1        0.0518
     10 C          64.8883   92.3416   11.7847 C.ar    1  UNL1        0.0578
     11 C          64.4666   91.1006   12.5141 C.ar    1  UNL1        0.0326
     12 C          63.6282   89.9282   12.0988 C.ar    1  UNL1        0.0040
     13 C          63.3714   88.8100   13.0650 C.ar    1  UNL1        0.0150
     14 C          63.9530   88.8642   14.4466 C.ar    1  UNL1        0.0543
     15 C          64.7915   90.0366   14.8619 C.ar    1  UNL1        0.0357
     16 C          65.0483   91.1548   13.8957 C.ar    1  UNL1        0.1033
     17 N          65.8294   92.4293   14.0201 N.ar    1  UNL1       -0.1692
     18 N          65.7305   93.1628   12.7154 N.ar    1  UNL1       -0.2504
     19 C          66.3629   94.4853   12.3973 C.3     1  UNL1        0.1534
     20 C          66.4967   94.9289   10.9707 C.ar    1  UNL1        0.0021
     21 C          65.6719   96.0733   10.4606 C.ar    1  UNL1       -0.0023
     22 C          65.8057   96.5169    9.0340 C.ar    1  UNL1       -0.0003
     23 C          66.7642   95.8161    8.1174 C.ar    1  UNL1       -0.0000
     24 C          67.5890   94.6717    8.6275 C.ar    1  UNL1       -0.0003
     25 C          67.4552   94.2281   10.0541 C.ar    1  UNL1       -0.0023
     26 N          62.7786   83.9361   12.0007 N.pl3   1  UNL1       -0.2825
     27 H          62.5403   82.9863   11.8985 H       1  UNL1        0.1551
     28 C          62.5042   84.9022   10.8865 C.ar    1  UNL1        0.0518
     29 C          63.0557   84.6427    9.5160 C.ar    1  UNL1        0.0148
     30 C          62.7814   85.6088    8.4018 C.ar    1  UNL1        0.0026
     31 C          61.9555   86.8344    8.6582 C.ar    1  UNL1        0.0200
     32 C          61.4040   87.0939   10.0287 C.ar    1  UNL1        0.1229
     33 C          61.6783   86.1278   11.1429 C.ar    1  UNL1        0.0346
     34 S          60.5780   88.3195   10.2851 S.O2    1  UNL1        0.0572
     35 N          59.7522   89.5451   10.5415 N.3     1  UNL1       -0.2035
     36 O          60.8049   88.7680    8.8719 O.2     1  UNL1       -0.1532
     37 O          60.3512   87.8710   11.6984 O.2     1  UNL1       -0.1532
     38 H          59.7104   90.1105    9.6936 H       1  UNL1        0.1442
     39 H          60.1759   90.0897   11.2927 H       1  UNL1        0.1442
@<TRIPOS>BOND
     1     9    10    1
     2    10    11   ar
     3    11    12   ar
     4    12    13   ar
     5    13    14   ar
     6    14     7    1
     7     7     8    1
     8     7     1    1
     9     1     2   ar
    10     2     3   ar
    11     3     4   ar
    12     4     5   ar
    13     5    26    1
    14    26    28    1
    15    28    29   ar
    16    29    30   ar
    17    30    31   ar
    18    31    32   ar
    19    32    34    1
    20    34    35    1
    21    34    36    2
    22    34    37    2
    23    32    33   ar
    24     5     6   ar
    25    14    15   ar
    26    15    16   ar
    27    16    17   ar
    28    17    18   ar
    29    18    19    1
    30    19    20    1
    31    20    21   ar
    32    21    22   ar
    33    22    23   ar
    34    23    24   ar
    35    24    25   ar
    36    18    10   ar
    37    25    20   ar
    38    16    11   ar
    39     6     1   ar
    40    33    28   ar
    41    26    27    1
    42    35    38    1
    43    35    39    1
@<TRIPOS>MOLECULE
*****
 39 43 0 0 0
SMALL
GASTEIGER

@<TRIPOS>ATOM
      1 C          62.3648   90.4185   12.2924 C.ar    1  UNL1        0.1399
      2 C          63.3422   91.4623   11.8393 C.ar    1  UNL1        0.0554
      3 C          64.3608   92.0028   12.7986 C.ar    1  UNL1        0.1047
      4 N          64.4020   91.4996   14.2110 N.ar    1  UNL1       -0.2119
      5 C          63.4247   90.4558   14.6642 C.ar    1  UNL1        0.2218
      6 N          62.4061   89.9152   13.7049 N.ar    1  UNL1       -0.1983
      7 N          61.3462   89.8780   11.3330 N.pl3   1  UNL1       -0.2705
      8 C          60.0488   90.6027   11.1297 C.3     1  UNL1        0.1187
      9 C          62.3438   84.1662    7.2085 C.3     1  UNL1        0.0518
     10 C          62.5997   84.7271    8.5760 C.ar    1  UNL1        0.0578
     11 C          62.1830   86.0825    9.0651 C.ar    1  UNL1        0.0326
     12 C          61.4441   87.2059    8.4004 C.ar    1  UNL1        0.0040
     13 C          61.1652   88.4711    9.1564 C.ar    1  UNL1        0.0150
     14 C          61.6252   88.6128   10.5771 C.ar    1  UNL1        0.0543
     15 C          62.3641   87.4893   11.2418 C.ar    1  UNL1        0.0357
     16 C          62.6430   86.2242   10.4858 C.ar    1  UNL1        0.1033
     17 N          63.3440   84.9563   10.8746 N.ar    1  UNL1       -0.1692
     18 N          63.3173   84.0311    9.6943 N.ar    1  UNL1       -0.2504
     19 C          63.9049   82.6520    9.6416 C.3     1  UNL1        0.1534
     20 C          63.4264   81.5960   10.5933 C.ar    1  UNL1        0.0021
     21 C          63.1442   80.2095   10.0951 C.ar    1  UNL1       -0.0023
     22 C          62.6657   79.1535   11.0468 C.ar    1  UNL1       -0.0003
     23 C          62.4693   79.4838   12.4967 C.ar    1  UNL1       -0.0000
     24 C          62.7514   80.8702   12.9950 C.ar    1  UNL1       -0.0003
     25 C          63.2300   81.9263   12.0432 C.ar    1  UNL1       -0.0023
     26 N          63.4659   89.9525   16.0766 N.pl3   1  UNL1       -0.2825
     27 H          63.5294   90.5896   16.8245 H       1  UNL1        0.1551
     28 C          63.4106   88.4786   16.3496 C.ar    1  UNL1        0.0518
     29 C          62.7875   87.9735   17.6171 C.ar    1  UNL1        0.0148
     30 C          62.7322   86.4996   17.8900 C.ar    1  UNL1        0.0026
     31 C          63.2999   85.5308   16.8955 C.ar    1  UNL1        0.0200
     32 C          63.9230   86.0359   15.6280 C.ar    1  UNL1        0.1229
     33 C          63.9783   87.5098   15.3551 C.ar    1  UNL1        0.0346
     34 S          64.4907   85.0671   14.6334 S.O2    1  UNL1        0.0572
     35 N          65.0585   84.0984   13.6389 N.3     1  UNL1       -0.2035
     36 O          65.8657   85.6084   14.8912 O.2     1  UNL1       -0.1532
     37 O          63.1158   84.5258   14.3757 O.2     1  UNL1       -0.1532
     38 H          66.0687   84.2259   13.5787 H       1  UNL1        0.1442
     39 H          64.6396   84.2656   12.7241 H       1  UNL1        0.1442
@<TRIPOS>BOND
     1     9    10    1
     2    10    11   ar
     3    11    12   ar
     4    12    13   ar
     5    13    14   ar
     6    14     7    1
     7     7     8    1
     8     7     1    1
     9     1     2   ar
    10     2     3   ar
    11     3     4   ar
    12     4     5   ar
    13     5    26    1
    14    26    28    1
    15    28    29   ar
    16    29    30   ar
    17    30    31   ar
    18    31    32   ar
    19    32    34    1
    20    34    35    1
    21    34    36    2
    22    34    37    2
    23    32    33   ar
    24     5     6   ar
    25    14    15   ar
    26    15    16   ar
    27    16    17   ar
    28    17    18   ar
    29    18    19    1
    30    19    20    1
    31    20    21   ar
    32    21    22   ar
    33    22    23   ar
    34    23    24   ar
    35    24    25   ar
    36    18    10   ar
    37    25    20   ar
    38    16    11   ar
    39     6     1   ar
    40    33    28   ar
    41    26    27    1
    42    35    38    1
    43    35    39    1
