@<TRIPOS>MOLECULE
*****
 42 43 0 0 0
SMALL
GASTEIGER

@<TRIPOS>ATOM
      1 C          63.4300   89.1249   12.5794 C.ar    1  UNL1        0.0539
      2 S          64.5709   90.0549   12.8679 S.2     1  UNL1       -0.0619
      3 C          64.2154   91.4072   12.3248 C.ar    1  UNL1        0.1641
      4 N          62.8547   91.3130   11.7007 N.ar    1  UNL1       -0.2291
      5 C          62.3693   89.9024   11.8580 C.ar    1  UNL1        0.1414
      6 C          63.2253   84.7674   13.6839 C.ar    1  UNL1        0.1333
      7 C          62.7183   85.2274   12.3493 C.ar    1  UNL1        0.0208
      8 C          62.7866   86.6799   11.9811 C.ar    1  UNL1        0.0028
      9 C          63.3618   87.6724   12.9476 C.ar    1  UNL1        0.0191
     10 C          63.8687   87.2124   14.2822 C.ar    1  UNL1        0.0700
     11 CL         64.4439   88.2049   15.2488 Cl      1  UNL1       -0.0813
     12 C          63.8005   85.7598   14.6504 C.ar    1  UNL1        0.0867
     13 CL         64.3074   85.2998   15.9851 Cl      1  UNL1       -0.0800
     14 S          63.1570   83.3149   14.0521 S.O2    1  UNL1        0.0613
     15 O          64.2940   83.0246   13.1178 O.2     1  UNL1       -0.1530
     16 O          62.0201   83.6051   14.9865 O.2     1  UNL1       -0.1530
     17 N          63.0888   81.8623   14.4203 N.3     1  UNL1       -0.1723
     18 H          63.9967   81.4577   14.1917 H       1  UNL1        0.1491
     19 C          62.0508   80.9782   13.7953 C.3     1  UNL1        0.1700
     20 C          62.4401   80.0116   12.7163 C.3     1  UNL1        0.4118
     21 F          62.8293   79.0450   11.6373 F       1  UNL1       -0.1685
     22 F          62.2911   81.0962   11.6909 F       1  UNL1       -0.1685
     23 F          62.5890   78.9269   13.7416 F       1  UNL1       -0.1685
     24 C          59.7520   79.8403   14.2087 C.3     1  UNL1        0.0018
     25 C          60.6235   81.0605   14.2492 C.3     1  UNL1        0.0261
     26 C          65.0704   92.6377   12.3939 C.2     1  UNL1        0.2699
     27 O          65.6829   93.0533   13.6986 O.2     1  UNL1       -0.2679
     28 N          65.3130   93.4527   11.1581 N.am    1  UNL1       -0.2969
     29 H          64.9111   93.1799   10.3018 H       1  UNL1        0.1499
     30 C          66.1681   94.6832   11.2272 C.3     1  UNL1        0.1166
     31 C          67.0332   95.0616   10.0615 C.3     1  UNL1        0.1064
     32 C          66.7677   96.5123   10.3356 C.3     1  UNL1        0.0311
     33 C          67.2986   93.6109    9.7876 C.3     1  UNL1        0.0311
     34 O          67.8982   95.4400    8.8960 O.3     1  UNL1       -0.3851
     35 H          67.9228   96.4061    8.8118 H       1  UNL1        0.2103
     36 C          61.0541   89.3639   11.3782 C.2     1  UNL1        0.2673
     37 O          59.7974   89.6655   12.1397 O.2     1  UNL1       -0.2682
     38 N          60.9955   88.5239   10.1369 N.am    1  UNL1       -0.2748
     39 C          59.6802   87.9854    9.6570 C.3     1  UNL1        0.0938
     40 C          59.3504   88.0057    8.1939 C.3     1  UNL1        0.0233
     41 C          62.2521   88.2223    9.3753 C.3     1  UNL1        0.0938
     42 C          62.5279   86.8243    8.9066 C.3     1  UNL1        0.0233
@<TRIPOS>BOND
     1    24    25    1
     2    19    25    1
     3    19    17    1
     4    17    14    1
     5    14    15    2
     6    14    16    2
     7    14     6    1
     8     6     7   ar
     9     7     8   ar
    10     8     9   ar
    11     9     1    1
    12     1     2   ar
    13     2     3   ar
    14     3    26    1
    15    26    27    2
    16    26    28   am
    17    28    30    1
    18    30    31    1
    19    31    32    1
    20    31    33    1
    21    31    34    1
    22     3     4   ar
    23     4     5   ar
    24     5    36    1
    25    36    37    2
    26    36    38   am
    27    38    39    1
    28    39    40    1
    29    38    41    1
    30    41    42    1
    31     9    10   ar
    32    10    11    1
    33    10    12   ar
    34    12    13    1
    35    19    20    1
    36    20    21    1
    37    20    22    1
    38    20    23    1
    39    12     6   ar
    40     5     1   ar
    41    17    18    1
    42    28    29    1
    43    34    35    1
@<TRIPOS>MOLECULE
*****
 42 43 0 0 0
SMALL
GASTEIGER

@<TRIPOS>ATOM
      1 C          63.5411   89.2599   12.7656 C.ar    1  UNL1        0.0539
      2 S          64.7151   90.1695   12.9769 S.2     1  UNL1       -0.0619
      3 C          64.3594   91.5201   12.4298 C.ar    1  UNL1        0.1641
      4 N          62.9656   91.4453   11.8805 N.ar    1  UNL1       -0.2291
      5 C          62.4599   90.0485   12.0880 C.ar    1  UNL1        0.1414
      6 C          63.3046   84.9266   13.9557 C.ar    1  UNL1        0.1333
      7 C          63.0214   85.3320   12.5396 C.ar    1  UNL1        0.0208
      8 C          63.1003   86.7764   12.1429 C.ar    1  UNL1        0.0028
      9 C          63.4623   87.8155   13.1623 C.ar    1  UNL1        0.0191
     10 C          63.7454   87.4101   14.5784 C.ar    1  UNL1        0.0700
     11 CL         64.1075   88.4492   15.5980 Cl      1  UNL1       -0.0813
     12 C          63.6666   85.9656   14.9751 C.ar    1  UNL1        0.0867
     13 CL         63.9498   85.5603   16.3913 Cl      1  UNL1       -0.0800
     14 S          63.2257   83.4821   14.3524 S.O2    1  UNL1        0.0613
     15 O          61.8106   83.6842   14.8069 O.2     1  UNL1       -0.1530
     16 O          64.6408   83.2801   13.8979 O.2     1  UNL1       -0.1530
     17 N          63.1469   82.0377   14.7491 N.3     1  UNL1       -0.1723
     18 H          64.0836   81.7616   15.0434 H       1  UNL1        0.1491
     19 C          62.6846   81.0117   13.7573 C.3     1  UNL1        0.1700
     20 C          61.4265   80.2357   14.0122 C.3     1  UNL1        0.4118
     21 F          60.1684   79.4596   14.2671 F       1  UNL1       -0.1685
     22 F          62.0861   78.9944   13.4884 F       1  UNL1       -0.1685
     23 F          60.7670   81.4769   14.5360 F       1  UNL1       -0.1685
     24 C          63.1112   81.4560   11.2333 C.3     1  UNL1        0.0018
     25 C          63.4804   80.7618   12.5106 C.3     1  UNL1        0.0261
     26 C          65.2424   92.7326   12.4318 C.2     1  UNL1        0.2699
     27 O          66.0023   93.1051   13.6704 O.2     1  UNL1       -0.2679
     28 N          65.3657   93.5727   11.1953 N.am    1  UNL1       -0.2969
     29 H          64.8670   93.3282   10.3824 H       1  UNL1        0.1499
     30 C          66.2487   94.7852   11.1973 C.3     1  UNL1        0.1166
     31 C          67.1062   95.0904   10.0048 C.3     1  UNL1        0.1064
     32 C          67.2295   93.6233    9.7180 C.3     1  UNL1        0.0311
     33 C          66.9829   96.5576   10.2918 C.3     1  UNL1        0.0311
     34 O          67.9636   95.3957    8.8125 O.3     1  UNL1       -0.3851
     35 H          68.2236   94.5670    8.3806 H       1  UNL1        0.2103
     36 C          61.1100   89.5310   11.6882 C.2     1  UNL1        0.2673
     37 O          59.9188   89.7886   12.5628 O.2     1  UNL1       -0.2682
     38 N          60.9511   88.7560   10.4138 N.am    1  UNL1       -0.2748
     39 C          59.6012   88.2386   10.0139 C.3     1  UNL1        0.0938
     40 C          59.4173   87.5733    8.6822 C.3     1  UNL1        0.0233
     41 C          62.1422   88.4984    9.5392 C.3     1  UNL1        0.0938
     42 C          62.5322   87.0907    9.1984 C.3     1  UNL1        0.0233
@<TRIPOS>BOND
     1    24    25    1
     2    19    25    1
     3    19    17    1
     4    17    14    1
     5    14    15    2
     6    14    16    2
     7    14     6    1
     8     6     7   ar
     9     7     8   ar
    10     8     9   ar
    11     9     1    1
    12     1     2   ar
    13     2     3   ar
    14     3    26    1
    15    26    27    2
    16    26    28   am
    17    28    30    1
    18    30    31    1
    19    31    32    1
    20    31    33    1
    21    31    34    1
    22     3     4   ar
    23     4     5   ar
    24     5    36    1
    25    36    37    2
    26    36    38   am
    27    38    39    1
    28    39    40    1
    29    38    41    1
    30    41    42    1
    31     9    10   ar
    32    10    11    1
    33    10    12   ar
    34    12    13    1
    35    19    20    1
    36    20    21    1
    37    20    22    1
    38    20    23    1
    39    12     6   ar
    40     5     1   ar
    41    17    18    1
    42    28    29    1
    43    34    35    1
@<TRIPOS>MOLECULE
*****
 42 43 0 0 0
SMALL
GASTEIGER

@<TRIPOS>ATOM
      1 C          61.7609   88.5582   10.4842 C.ar    1  UNL1        0.0539
      2 S          60.9368   89.3108    9.4820 S.2     1  UNL1       -0.0619
      3 C          60.2217   88.3095    8.6241 C.ar    1  UNL1        0.1641
      4 N          60.6038   86.9379    9.0961 N.ar    1  UNL1       -0.2291
      5 C          61.5551   87.0916   10.2457 C.ar    1  UNL1        0.1414
      6 C          64.3891   90.3798   13.6503 C.ar    1  UNL1        0.1333
      7 C          63.7641   89.0352   13.8768 C.ar    1  UNL1        0.0208
      8 C          62.8880   88.4280   12.8214 C.ar    1  UNL1        0.0028
      9 C          62.6370   89.1654   11.5396 C.ar    1  UNL1        0.0191
     10 C          63.2620   90.5100   11.3131 C.ar    1  UNL1        0.0700
     11 CL         63.0109   91.2475   10.0312 Cl      1  UNL1       -0.0813
     12 C          64.1380   91.1172   12.3685 C.ar    1  UNL1        0.0867
     13 CL         64.7630   92.4619   12.1420 Cl      1  UNL1       -0.0800
     14 S          65.2651   90.9870   14.7057 S.O2    1  UNL1        0.0613
     15 O          64.0914   91.7540   15.2387 O.2     1  UNL1       -0.1530
     16 O          66.4388   90.2201   14.1727 O.2     1  UNL1       -0.1530
     17 N          66.1412   91.5943   15.7611 N.3     1  UNL1       -0.1723
     18 H          65.5334   92.1456   16.3669 H       1  UNL1        0.1491
     19 C          67.2827   92.4841   15.3675 C.3     1  UNL1        0.1700
     20 C          67.2625   93.1887   14.0434 C.3     1  UNL1        0.4118
     21 F          67.2423   93.8932   12.7193 F       1  UNL1       -0.1685
     22 F          66.2669   94.1727   14.5823 F       1  UNL1       -0.1685
     23 F          68.2581   92.2046   13.5046 F       1  UNL1       -0.1685
     24 C          69.3090   93.8900   16.1847 C.3     1  UNL1        0.0018
     25 C          68.4446   92.6694   16.2980 C.3     1  UNL1        0.0261
     26 C          59.2884   88.6245    7.4929 C.2     1  UNL1        0.2699
     27 O          58.2036   87.6565    7.1239 O.2     1  UNL1       -0.2679
     28 N          59.4399   89.9074    6.7307 N.am    1  UNL1       -0.2969
     29 H          60.1519   90.5428    6.9729 H       1  UNL1        0.1499
     30 C          58.5066   90.2224    5.5995 C.3     1  UNL1        0.1166
     31 C          58.6884   91.4823    4.8058 C.3     1  UNL1        0.1064
     32 C          57.2050   91.7043    4.8183 C.3     1  UNL1        0.0311
     33 C          60.1719   91.2602    4.7933 C.3     1  UNL1        0.0311
     34 O          58.8703   92.7421    4.0122 O.3     1  UNL1       -0.3851
     35 H          58.0051   93.1490    3.8487 H       1  UNL1        0.2103
     36 C          62.1892   85.9748   11.0207 C.2     1  UNL1        0.2673
     37 O          61.8766   85.8008   12.4775 O.2     1  UNL1       -0.2682
     38 N          63.1359   85.0319   10.3390 N.am    1  UNL1       -0.2748
     39 C          63.7700   83.9151   11.1140 C.3     1  UNL1        0.0938
     40 C          64.2085   82.6666   10.4077 C.3     1  UNL1        0.0233
     41 C          63.4485   85.2058    8.8823 C.3     1  UNL1        0.0938
     42 C          62.5763   84.5616    7.8458 C.3     1  UNL1        0.0233
@<TRIPOS>BOND
     1    24    25    1
     2    19    25    1
     3    19    17    1
     4    17    14    1
     5    14    15    2
     6    14    16    2
     7    14     6    1
     8     6     7   ar
     9     7     8   ar
    10     8     9   ar
    11     9     1    1
    12     1     2   ar
    13     2     3   ar
    14     3    26    1
    15    26    27    2
    16    26    28   am
    17    28    30    1
    18    30    31    1
    19    31    32    1
    20    31    33    1
    21    31    34    1
    22     3     4   ar
    23     4     5   ar
    24     5    36    1
    25    36    37    2
    26    36    38   am
    27    38    39    1
    28    39    40    1
    29    38    41    1
    30    41    42    1
    31     9    10   ar
    32    10    11    1
    33    10    12   ar
    34    12    13    1
    35    19    20    1
    36    20    21    1
    37    20    22    1
    38    20    23    1
    39    12     6   ar
    40     5     1   ar
    41    17    18    1
    42    28    29    1
    43    34    35    1
@<TRIPOS>MOLECULE
*****
 42 43 0 0 0
SMALL
GASTEIGER

@<TRIPOS>ATOM
      1 C          64.0195   89.3596   14.1901 C.ar    1  UNL1        0.0539
      2 S          65.1925   90.1113   14.7459 S.2     1  UNL1       -0.0619
      3 C          65.0622   91.5468   14.3307 C.ar    1  UNL1        0.1641
      4 N          63.8085   91.6823   13.5183 N.ar    1  UNL1       -0.2291
      5 C          63.1642   90.3306   13.4314 C.ar    1  UNL1        0.1414
      6 C          63.2088   84.9636   14.7079 C.ar    1  UNL1        0.1333
      7 C          63.5865   85.5030   13.3602 C.ar    1  UNL1        0.0208
      8 C          63.8568   86.9683   13.1876 C.ar    1  UNL1        0.0028
      9 C          63.7492   87.8943   14.3627 C.ar    1  UNL1        0.0191
     10 C          63.3715   87.3550   15.7104 C.ar    1  UNL1        0.0700
     11 CL         63.2640   88.2810   16.8857 Cl      1  UNL1       -0.0813
     12 C          63.1013   85.8896   15.8831 C.ar    1  UNL1        0.0867
     13 CL         62.7235   85.3503   17.2309 Cl      1  UNL1       -0.0800
     14 S          62.9385   83.4983   14.8805 S.O2    1  UNL1        0.0613
     15 O          61.4846   83.7329   14.5957 O.2     1  UNL1       -0.1530
     16 O          64.3924   83.2637   15.1654 O.2     1  UNL1       -0.1530
     17 N          62.6683   82.0330   15.0531 N.3     1  UNL1       -0.1723
     18 H          63.4745   81.6401   15.5390 H       1  UNL1        0.1491
     19 C          62.4233   81.1689   13.8518 C.3     1  UNL1        0.1700
     20 C          63.2031   81.3987   12.5911 C.3     1  UNL1        0.4118
     21 F          63.9828   81.6284   11.3305 F       1  UNL1       -0.1685
     22 F          64.4177   80.7960   13.2326 F       1  UNL1       -0.1685
     23 F          61.9884   82.0013   11.9497 F       1  UNL1       -0.1685
     24 C          59.9684   80.4031   14.2219 C.3     1  UNL1        0.0018
     25 C          61.3987   80.0750   13.9110 C.3     1  UNL1        0.0261
     26 C          66.0177   92.6526   14.6687 C.2     1  UNL1        0.2699
     27 O          66.0690   93.8860   13.8165 O.2     1  UNL1       -0.2679
     28 N          66.9218   92.5250   15.8587 N.am    1  UNL1       -0.2969
     29 H          66.8881   91.7155   16.4180 H       1  UNL1        0.1499
     30 C          67.8773   93.6308   16.1966 C.3     1  UNL1        0.1166
     31 C          69.2305   93.6762   15.5508 C.3     1  UNL1        0.1064
     32 C          69.0190   92.2929   15.0105 C.3     1  UNL1        0.0311
     33 C          69.4419   95.0595   16.0911 C.3     1  UNL1        0.0311
     34 O          70.5836   93.7217   14.9050 O.3     1  UNL1       -0.3851
     35 H          70.7464   92.8881   14.4364 H       1  UNL1        0.2103
     36 C          61.8884   90.0066   12.7121 C.2     1  UNL1        0.2673
     37 O          60.6368   89.7312   13.4918 O.2     1  UNL1       -0.2682
     38 N          61.8640   89.9582   11.2131 N.am    1  UNL1       -0.2748
     39 C          60.5882   89.6343   10.4938 C.3     1  UNL1        0.0938
     40 C          60.6304   88.9076    9.1822 C.3     1  UNL1        0.0233
     41 C          63.1155   90.2336   10.4333 C.3     1  UNL1        0.0938
     42 C          63.4710   91.6418   10.0584 C.3     1  UNL1        0.0233
@<TRIPOS>BOND
     1    24    25    1
     2    19    25    1
     3    19    17    1
     4    17    14    1
     5    14    15    2
     6    14    16    2
     7    14     6    1
     8     6     7   ar
     9     7     8   ar
    10     8     9   ar
    11     9     1    1
    12     1     2   ar
    13     2     3   ar
    14     3    26    1
    15    26    27    2
    16    26    28   am
    17    28    30    1
    18    30    31    1
    19    31    32    1
    20    31    33    1
    21    31    34    1
    22     3     4   ar
    23     4     5   ar
    24     5    36    1
    25    36    37    2
    26    36    38   am
    27    38    39    1
    28    39    40    1
    29    38    41    1
    30    41    42    1
    31     9    10   ar
    32    10    11    1
    33    10    12   ar
    34    12    13    1
    35    19    20    1
    36    20    21    1
    37    20    22    1
    38    20    23    1
    39    12     6   ar
    40     5     1   ar
    41    17    18    1
    42    28    29    1
    43    34    35    1
@<TRIPOS>MOLECULE
*****
 42 43 0 0 0
SMALL
GASTEIGER

@<TRIPOS>ATOM
      1 C          63.5121   88.6722   13.3792 C.ar    1  UNL1        0.0539
      2 S          64.5682   89.2444   14.2777 S.2     1  UNL1       -0.0619
      3 C          64.2512   90.6933   14.5015 C.ar    1  UNL1        0.1641
      4 N          62.9992   91.0167   13.7413 N.ar    1  UNL1       -0.2291
      5 C          62.5424   89.7676   13.0477 C.ar    1  UNL1        0.1414
      6 C          63.2916   84.4169   11.9324 C.ar    1  UNL1        0.1333
      7 C          62.7418   85.5263   11.0858 C.ar    1  UNL1        0.0208
      8 C          62.8153   86.9448   11.5681 C.ar    1  UNL1        0.0028
      9 C          63.4386   87.2538   12.8970 C.ar    1  UNL1        0.0191
     10 C          63.9884   86.1443   13.7435 C.ar    1  UNL1        0.0700
     11 CL         64.6118   86.4533   15.0725 Cl      1  UNL1       -0.0813
     12 C          63.9149   84.7259   13.2613 C.ar    1  UNL1        0.0867
     13 CL         64.4648   83.6164   14.1079 Cl      1  UNL1       -0.0800
     14 S          63.2181   82.9984   11.4501 S.O2    1  UNL1        0.0613
     15 O          64.6710   83.0488   11.0806 O.2     1  UNL1       -0.1530
     16 O          61.7652   82.9481   11.8196 O.2     1  UNL1       -0.1530
     17 N          63.1446   81.5800   10.9678 N.3     1  UNL1       -0.1723
     18 H          62.4257   81.5517   10.2448 H       1  UNL1        0.1491
     19 C          62.8320   80.4749   11.9328 C.3     1  UNL1        0.1700
     20 C          62.7352   80.7664   13.4010 C.3     1  UNL1        0.4118
     21 F          62.6384   81.0578   14.8692 F       1  UNL1       -0.1685
     22 F          61.2389   80.7885   13.2979 F       1  UNL1       -0.1685
     23 F          64.2315   80.7442   13.5041 F       1  UNL1       -0.1685
     24 C          62.7910   78.7711    9.9718 C.3     1  UNL1        0.0018
     25 C          62.6163   79.0784   11.4295 C.3     1  UNL1        0.0261
     26 C          65.0466   91.6508   15.3385 C.2     1  UNL1        0.2699
     27 O          64.3980   92.3554   16.4931 O.2     1  UNL1       -0.2679
     28 N          66.4906   91.9037   15.0210 N.am    1  UNL1       -0.2969
     29 H          66.9163   91.4413   14.2633 H       1  UNL1        0.1499
     30 C          67.2860   92.8612   15.8580 C.3     1  UNL1        0.1166
     31 C          68.6810   93.2333   15.4507 C.3     1  UNL1        0.1064
     32 C          68.6920   92.1073   14.4598 C.3     1  UNL1        0.0311
     33 C          68.6698   94.3594   16.4418 C.3     1  UNL1        0.0311
     34 O          70.0758   93.6054   15.0435 O.3     1  UNL1       -0.3851
     35 H          70.3833   92.9992   14.3516 H       1  UNL1        0.2103
     36 C          61.3289   89.6368   12.1757 C.2     1  UNL1        0.2673
     37 O          59.9989   89.3068   12.7859 O.2     1  UNL1       -0.2682
     38 N          61.4454   89.8360   10.6936 N.am    1  UNL1       -0.2748
     39 C          60.2319   89.7052    9.8216 C.3     1  UNL1        0.0938
     40 C          60.1774   88.6398    8.7671 C.3     1  UNL1        0.0233
     41 C          62.7754   90.1659   10.0834 C.3     1  UNL1        0.0938
     42 C          63.2934   91.5729   10.1294 C.3     1  UNL1        0.0233
@<TRIPOS>BOND
     1    24    25    1
     2    19    25    1
     3    19    17    1
     4    17    14    1
     5    14    15    2
     6    14    16    2
     7    14     6    1
     8     6     7   ar
     9     7     8   ar
    10     8     9   ar
    11     9     1    1
    12     1     2   ar
    13     2     3   ar
    14     3    26    1
    15    26    27    2
    16    26    28   am
    17    28    30    1
    18    30    31    1
    19    31    32    1
    20    31    33    1
    21    31    34    1
    22     3     4   ar
    23     4     5   ar
    24     5    36    1
    25    36    37    2
    26    36    38   am
    27    38    39    1
    28    39    40    1
    29    38    41    1
    30    41    42    1
    31     9    10   ar
    32    10    11    1
    33    10    12   ar
    34    12    13    1
    35    19    20    1
    36    20    21    1
    37    20    22    1
    38    20    23    1
    39    12     6   ar
    40     5     1   ar
    41    17    18    1
    42    28    29    1
    43    34    35    1
@<TRIPOS>MOLECULE
*****
 42 43 0 0 0
SMALL
GASTEIGER

@<TRIPOS>ATOM
      1 C          62.8210   88.3316   11.9071 C.ar    1  UNL1        0.0539
      2 S          63.2793   87.1403   12.6950 S.2     1  UNL1       -0.0619
      3 C          62.2277   86.0767   12.5812 C.ar    1  UNL1        0.1641
      4 N          61.1194   86.6107   11.7229 N.ar    1  UNL1       -0.2291
      5 C          61.4861   88.0042   11.3064 C.ar    1  UNL1        0.1414
      6 C          65.0578   92.2070   11.4297 C.ar    1  UNL1        0.1333
      7 C          64.3482   91.6010   10.2553 C.ar    1  UNL1        0.0208
      8 C          63.6026   90.3092   10.4145 C.ar    1  UNL1        0.0028
      9 C          63.5666   89.6234   11.7480 C.ar    1  UNL1        0.0191
     10 C          64.2762   90.2293   12.9223 C.ar    1  UNL1        0.0700
     11 CL         64.2403   89.5435   14.2560 Cl      1  UNL1       -0.0813
     12 C          65.0218   91.5211   12.7632 C.ar    1  UNL1        0.0867
     13 CL         65.7315   92.1271   13.9376 Cl      1  UNL1       -0.0800
     14 S          65.8034   93.4987   11.2705 S.O2    1  UNL1        0.0613
     15 O          64.7139   94.0179   10.3798 O.2     1  UNL1       -0.1530
     16 O          66.8930   92.9796   12.1612 O.2     1  UNL1       -0.1530
     17 N          66.5491   94.7905   11.1114 N.3     1  UNL1       -0.1723
     18 H          65.8863   95.5396   11.3114 H       1  UNL1        0.1491
     19 C          67.1983   95.1253    9.8013 C.3     1  UNL1        0.1700
     20 C          67.8102   94.0384    8.9681 C.3     1  UNL1        0.4118
     21 F          68.4220   92.9514    8.1349 F       1  UNL1       -0.1685
     22 F          68.8904   93.8604    9.9935 F       1  UNL1       -0.1685
     23 F          66.7299   94.2163    7.9427 F       1  UNL1       -0.1685
     24 C          67.6005   96.8514    7.9016 C.3     1  UNL1        0.0018
     25 C          67.2357   96.5470    9.3243 C.3     1  UNL1        0.0261
     26 C          62.2760   84.7178   13.2144 C.2     1  UNL1        0.2699
     27 O          61.9650   84.5586   14.6731 O.2     1  UNL1       -0.2679
     28 N          62.6352   83.5180   12.3888 N.am    1  UNL1       -0.2969
     29 H          62.8393   83.6225   11.4314 H       1  UNL1        0.1499
     30 C          62.6835   82.1591   13.0220 C.3     1  UNL1        0.1166
     31 C          62.7804   80.9339   12.1619 C.3     1  UNL1        0.1064
     32 C          63.3066   81.7687   11.0321 C.3     1  UNL1        0.0311
     33 C          62.2543   80.0992   13.2917 C.3     1  UNL1        0.0311
     34 O          62.8773   79.7088   11.3018 O.3     1  UNL1       -0.3851
     35 H          63.2190   79.9536   10.4276 H       1  UNL1        0.2103
     36 C          60.6624   88.9113   10.4410 C.2     1  UNL1        0.2673
     37 O          60.1758   90.2239   10.9799 O.2     1  UNL1       -0.2682
     38 N          60.3253   88.5058    9.0368 N.am    1  UNL1       -0.2748
     39 C          59.5016   89.4128    8.1714 C.3     1  UNL1        0.0938
     40 C          59.7042   89.4190    6.6852 C.3     1  UNL1        0.0233
     41 C          60.8118   87.1931    8.4979 C.3     1  UNL1        0.0938
     42 C          59.8278   86.1719    8.0091 C.3     1  UNL1        0.0233
@<TRIPOS>BOND
     1    24    25    1
     2    19    25    1
     3    19    17    1
     4    17    14    1
     5    14    15    2
     6    14    16    2
     7    14     6    1
     8     6     7   ar
     9     7     8   ar
    10     8     9   ar
    11     9     1    1
    12     1     2   ar
    13     2     3   ar
    14     3    26    1
    15    26    27    2
    16    26    28   am
    17    28    30    1
    18    30    31    1
    19    31    32    1
    20    31    33    1
    21    31    34    1
    22     3     4   ar
    23     4     5   ar
    24     5    36    1
    25    36    37    2
    26    36    38   am
    27    38    39    1
    28    39    40    1
    29    38    41    1
    30    41    42    1
    31     9    10   ar
    32    10    11    1
    33    10    12   ar
    34    12    13    1
    35    19    20    1
    36    20    21    1
    37    20    22    1
    38    20    23    1
    39    12     6   ar
    40     5     1   ar
    41    17    18    1
    42    28    29    1
    43    34    35    1
@<TRIPOS>MOLECULE
*****
 42 43 0 0 0
SMALL
GASTEIGER

@<TRIPOS>ATOM
      1 C          64.0033   89.2955   13.9974 C.ar    1  UNL1        0.0539
      2 S          65.1675   90.0908   14.5093 S.2     1  UNL1       -0.0619
      3 C          64.9788   91.5163   14.0823 C.ar    1  UNL1        0.1641
      4 N          63.6979   91.6020   13.3064 N.ar    1  UNL1       -0.2291
      5 C          63.0951   90.2295   13.2539 C.ar    1  UNL1        0.1414
      6 C          63.3502   84.8825   14.5881 C.ar    1  UNL1        0.1333
      7 C          63.7341   85.7463   15.7527 C.ar    1  UNL1        0.0208
      8 C          63.9518   87.2173   15.5558 C.ar    1  UNL1        0.0028
      9 C          63.7856   87.8245   14.1943 C.ar    1  UNL1        0.0191
     10 C          63.4017   86.9606   13.0297 C.ar    1  UNL1        0.0700
     11 CL         63.2355   87.5677   11.6681 Cl      1  UNL1       -0.0813
     12 C          63.1840   85.4896   13.2266 C.ar    1  UNL1        0.0867
     13 CL         62.8001   84.6257   12.0619 Cl      1  UNL1       -0.0800
     14 S          63.1325   83.4115   14.7850 S.O2    1  UNL1        0.0613
     15 O          61.6709   83.6586   15.0150 O.2     1  UNL1       -0.1530
     16 O          64.5940   83.1644   14.5551 O.2     1  UNL1       -0.1530
     17 N          62.9147   81.9405   14.9819 N.3     1  UNL1       -0.1723
     18 H          63.7748   81.5666   15.3831 H       1  UNL1        0.1491
     19 C          62.5693   81.0700   13.8103 C.3     1  UNL1        0.1700
     20 C          61.3477   80.2007   13.8561 C.3     1  UNL1        0.4118
     21 F          60.1262   79.3314   13.9020 F       1  UNL1       -0.1685
     22 F          60.5178   81.3875   14.2469 F       1  UNL1       -0.1685
     23 F          62.1777   79.0139   13.4653 F       1  UNL1       -0.1685
     24 C          62.8518   81.3357   11.2413 C.3     1  UNL1        0.0018
     25 C          63.4454   81.0688   12.5927 C.3     1  UNL1        0.0261
     26 C          65.9078   92.6559   14.3791 C.2     1  UNL1        0.2699
     27 O          65.9405   93.8520   13.4745 O.2     1  UNL1       -0.2679
     28 N          66.8042   92.5995   15.5804 N.am    1  UNL1       -0.2969
     29 H          66.7828   91.8144   16.1741 H       1  UNL1        0.1499
     30 C          67.7332   93.7391   15.8772 C.3     1  UNL1        0.1166
     31 C          69.1712   93.6636   15.4565 C.3     1  UNL1        0.1064
     32 C          69.4396   94.9721   16.1391 C.3     1  UNL1        0.0311
     33 C          68.9027   92.3550   14.7740 C.3     1  UNL1        0.0311
     34 O          70.6090   93.5880   15.0359 O.3     1  UNL1       -0.3851
     35 H          71.0826   94.3695   15.3613 H       1  UNL1        0.2103
     36 C          61.8096   89.8564   12.5769 C.2     1  UNL1        0.2673
     37 O          60.6083   89.4909   13.3975 O.2     1  UNL1       -0.2682
     38 N          61.7253   89.8490   11.0793 N.am    1  UNL1       -0.2748
     39 C          60.4398   89.4760   10.4023 C.3     1  UNL1        0.0938
     40 C          60.4374   89.1075    8.9482 C.3     1  UNL1        0.0233
     41 C          62.9266   90.2145   10.2587 C.3     1  UNL1        0.0938
     42 C          63.2511   91.6569   10.0051 C.3     1  UNL1        0.0233
@<TRIPOS>BOND
     1    24    25    1
     2    19    25    1
     3    19    17    1
     4    17    14    1
     5    14    15    2
     6    14    16    2
     7    14     6    1
     8     6     7   ar
     9     7     8   ar
    10     8     9   ar
    11     9     1    1
    12     1     2   ar
    13     2     3   ar
    14     3    26    1
    15    26    27    2
    16    26    28   am
    17    28    30    1
    18    30    31    1
    19    31    32    1
    20    31    33    1
    21    31    34    1
    22     3     4   ar
    23     4     5   ar
    24     5    36    1
    25    36    37    2
    26    36    38   am
    27    38    39    1
    28    39    40    1
    29    38    41    1
    30    41    42    1
    31     9    10   ar
    32    10    11    1
    33    10    12   ar
    34    12    13    1
    35    19    20    1
    36    20    21    1
    37    20    22    1
    38    20    23    1
    39    12     6   ar
    40     5     1   ar
    41    17    18    1
    42    28    29    1
    43    34    35    1
@<TRIPOS>MOLECULE
*****
 42 43 0 0 0
SMALL
GASTEIGER

@<TRIPOS>ATOM
      1 C          62.3769   89.3569   10.7452 C.ar    1  UNL1        0.0539
      2 S          61.4641   89.8418    9.6581 S.2     1  UNL1       -0.0619
      3 C          60.6072   88.6896    9.2242 C.ar    1  UNL1        0.1641
      4 N          60.9904   87.4927   10.0430 N.ar    1  UNL1       -0.2291
      5 C          62.0842   87.9052   10.9830 C.ar    1  UNL1        0.1414
      6 C          65.4535   91.8245   12.9122 C.ar    1  UNL1        0.1333
      7 C          64.8574   90.6180   13.5748 C.ar    1  UNL1        0.0208
      8 C          63.8319   89.7955   12.8524 C.ar    1  UNL1        0.0028
      9 C          63.4024   90.1795   11.4675 C.ar    1  UNL1        0.0191
     10 C          63.9985   91.3860   10.8049 C.ar    1  UNL1        0.0700
     11 CL         63.5690   91.7700    9.4199 Cl      1  UNL1       -0.0813
     12 C          65.0240   92.2085   11.5273 C.ar    1  UNL1        0.0867
     13 CL         65.6200   93.4151   10.8646 Cl      1  UNL1       -0.0800
     14 S          66.4790   92.6471   13.6345 S.O2    1  UNL1        0.0613
     15 O          67.4547   91.5115   13.5423 O.2     1  UNL1       -0.1530
     16 O          65.5032   93.7826   13.7268 O.2     1  UNL1       -0.1530
     17 N          67.5045   93.4696   14.3569 N.3     1  UNL1       -0.1723
     18 H          68.3597   93.4269   13.8027 H       1  UNL1        0.1491
     19 C          67.8844   93.1257   15.7666 C.3     1  UNL1        0.1700
     20 C          69.1962   93.5920   16.3249 C.3     1  UNL1        0.4118
     21 F          70.5079   94.0584   16.8832 F       1  UNL1       -0.1685
     22 F          68.8087   95.0143   16.0473 F       1  UNL1       -0.1685
     23 F          69.5836   92.1698   16.6026 F       1  UNL1       -0.1685
     24 C          65.4998   92.6807   16.6972 C.3     1  UNL1        0.0018
     25 C          66.9525   92.3153   16.6181 C.3     1  UNL1        0.0261
     26 C          59.5523   88.7278    8.1585 C.2     1  UNL1        0.2699
     27 O          58.5738   87.5980    8.0309 O.2     1  UNL1       -0.2679
     28 N          59.4758   89.8957    7.2203 N.am    1  UNL1       -0.2969
     29 H          60.1180   90.6372    7.3041 H       1  UNL1        0.1499
     30 C          58.4209   89.9338    6.1546 C.3     1  UNL1        0.1166
     31 C          58.4386   91.0202    5.1204 C.3     1  UNL1        0.1064
     32 C          59.9373   90.9649    5.0880 C.3     1  UNL1        0.0311
     33 C          56.9399   91.0754    5.1528 C.3     1  UNL1        0.0311
     34 O          58.4563   92.1065    4.0862 O.3     1  UNL1       -0.3851
     35 H          59.3738   92.3070    3.8435 H       1  UNL1        0.2103
     36 C          62.7656   87.0210   11.9850 C.2     1  UNL1        0.2673
     37 O          63.3214   87.6085   13.2483 O.2     1  UNL1       -0.2682
     38 N          62.8911   85.5493   11.7238 N.am    1  UNL1       -0.2748
     39 C          63.5725   84.6651   12.7258 C.3     1  UNL1        0.0938
     40 C          63.1494   83.2336   12.8730 C.3     1  UNL1        0.0233
     41 C          62.3353   84.9616   10.4605 C.3     1  UNL1        0.0938
     42 C          63.2347   84.7273    9.2831 C.3     1  UNL1        0.0233
@<TRIPOS>BOND
     1    24    25    1
     2    19    25    1
     3    19    17    1
     4    17    14    1
     5    14    15    2
     6    14    16    2
     7    14     6    1
     8     6     7   ar
     9     7     8   ar
    10     8     9   ar
    11     9     1    1
    12     1     2   ar
    13     2     3   ar
    14     3    26    1
    15    26    27    2
    16    26    28   am
    17    28    30    1
    18    30    31    1
    19    31    32    1
    20    31    33    1
    21    31    34    1
    22     3     4   ar
    23     4     5   ar
    24     5    36    1
    25    36    37    2
    26    36    38   am
    27    38    39    1
    28    39    40    1
    29    38    41    1
    30    41    42    1
    31     9    10   ar
    32    10    11    1
    33    10    12   ar
    34    12    13    1
    35    19    20    1
    36    20    21    1
    37    20    22    1
    38    20    23    1
    39    12     6   ar
    40     5     1   ar
    41    17    18    1
    42    28    29    1
    43    34    35    1
@<TRIPOS>MOLECULE
*****
 42 43 0 0 0
SMALL
GASTEIGER

@<TRIPOS>ATOM
      1 C          60.9264   88.0751    9.3658 C.ar    1  UNL1        0.0539
      2 S          60.4901   88.1863    7.9349 S.2     1  UNL1       -0.0619
      3 C          59.9372   89.5647    7.7246 C.ar    1  UNL1        0.1641
      4 N          60.0318   90.3055    9.0255 N.ar    1  UNL1       -0.2291
      5 C          60.6431   89.3849   10.0398 C.ar    1  UNL1        0.1414
      6 C          62.7625   84.4491   11.2972 C.ar    1  UNL1        0.1333
      7 C          61.9456   85.4030   12.1173 C.ar    1  UNL1        0.0208
      8 C          61.3336   86.6117   11.4735 C.ar    1  UNL1        0.0028
      9 C          61.5384   86.8665   10.0096 C.ar    1  UNL1        0.0191
     10 C          62.3553   85.9125    9.1895 C.ar    1  UNL1        0.0700
     11 CL         62.5602   86.1672    7.7254 Cl      1  UNL1       -0.0813
     12 C          62.9674   84.7038    9.8332 C.ar    1  UNL1        0.0867
     13 CL         63.7843   83.7499    9.0130 Cl      1  UNL1       -0.0800
     14 S          63.3746   83.2404   11.9410 S.O2    1  UNL1        0.0613
     15 O          64.5534   84.0643   12.3672 O.2     1  UNL1       -0.1530
     16 O          62.1958   82.4165   11.5148 O.2     1  UNL1       -0.1530
     17 N          63.9867   82.0317   12.5848 N.3     1  UNL1       -0.1723
     18 H          63.9543   81.2820   11.8940 H       1  UNL1        0.1491
     19 C          63.4022   81.4794   13.8510 C.3     1  UNL1        0.1700
     20 C          62.9547   82.4102   14.9389 C.3     1  UNL1        0.4118
     21 F          62.5073   83.3409   16.0268 F       1  UNL1       -0.1685
     22 F          61.5253   82.0557   14.6542 F       1  UNL1       -0.1685
     23 F          64.3842   82.7647   15.2235 F       1  UNL1       -0.1685
     24 C          62.2519   79.2349   13.2272 C.3     1  UNL1        0.0018
     25 C          63.2652   79.9963   14.0293 C.3     1  UNL1        0.0261
     26 C          59.3864   90.1071    6.4391 C.2     1  UNL1        0.2699
     27 O          57.9601   89.8372    6.0612 O.2     1  UNL1       -0.2679
     28 N          60.2620   90.9194    5.5316 N.am    1  UNL1       -0.2969
     29 H          61.1981   91.0965    5.7797 H       1  UNL1        0.1499
     30 C          59.7112   91.4618    4.2461 C.3     1  UNL1        0.1166
     31 C          60.6174   92.1652    3.2795 C.3     1  UNL1        0.1064
     32 C          61.8007   91.4656    3.8799 C.3     1  UNL1        0.0311
     33 C          59.4340   92.8647    2.6792 C.3     1  UNL1        0.0311
     34 O          61.5235   92.8685    2.3130 O.3     1  UNL1       -0.3851
     35 H          62.4403   92.5936    2.4706 H       1  UNL1        0.2103
     36 C          60.9222   89.7160   11.4759 C.2     1  UNL1        0.2673
     37 O          59.8341   89.5870   12.5005 O.2     1  UNL1       -0.2682
     38 N          62.2892   90.1760   11.8876 N.am    1  UNL1       -0.2748
     39 C          62.5683   90.5071   13.3237 C.3     1  UNL1        0.0938
     40 C          63.8516   90.0621   13.9603 C.3     1  UNL1        0.0233
     41 C          63.3773   90.3050   10.8631 C.3     1  UNL1        0.0938
     42 C          63.8292   91.6635   10.4158 C.3     1  UNL1        0.0233
@<TRIPOS>BOND
     1    24    25    1
     2    19    25    1
     3    19    17    1
     4    17    14    1
     5    14    15    2
     6    14    16    2
     7    14     6    1
     8     6     7   ar
     9     7     8   ar
    10     8     9   ar
    11     9     1    1
    12     1     2   ar
    13     2     3   ar
    14     3    26    1
    15    26    27    2
    16    26    28   am
    17    28    30    1
    18    30    31    1
    19    31    32    1
    20    31    33    1
    21    31    34    1
    22     3     4   ar
    23     4     5   ar
    24     5    36    1
    25    36    37    2
    26    36    38   am
    27    38    39    1
    28    39    40    1
    29    38    41    1
    30    41    42    1
    31     9    10   ar
    32    10    11    1
    33    10    12   ar
    34    12    13    1
    35    19    20    1
    36    20    21    1
    37    20    22    1
    38    20    23    1
    39    12     6   ar
    40     5     1   ar
    41    17    18    1
    42    28    29    1
    43    34    35    1
