@<TRIPOS>MOLECULE
*****
 35 37 0 0 0
SMALL
GASTEIGER

@<TRIPOS>ATOM
      1 N          62.7262   86.2904   17.4201 N.pl3   1  UNL1       -0.3568
      2 C          63.2093   87.4112   16.5481 C.ar    1  UNL1        0.0482
      3 C          63.1641   88.8243   17.0492 C.ar    1  UNL1        0.0452
      4 C          63.6472   89.9451   16.1772 C.ar    1  UNL1        0.1598
      5 F          63.6020   91.3582   16.6784 F       1  UNL1       -0.2027
      6 C          64.1754   89.6529   14.8041 C.ar    1  UNL1        0.1497
      7 C          64.2206   88.2398   14.3030 C.ar    1  UNL1        0.0280
      8 C          63.7375   87.1190   15.1750 C.ar    1  UNL1        0.0680
      9 H          62.3795   86.4822   18.3214 H       1  UNL1        0.1424
     10 H          62.7559   85.3630   17.0912 H       1  UNL1        0.1424
     11 C          63.7827   85.7059   14.6738 C.2     1  UNL1        0.2507
     12 O          65.0904   84.9739   14.6109 O.2     1  UNL1       -0.2698
     13 N          62.5201   85.0249   14.2355 N.am    1  UNL1       -0.2804
     14 H          61.6618   85.5054   14.2768 H       1  UNL1        0.1552
     15 C          62.5652   83.6118   13.7343 C.ar    1  UNL1        0.0505
     16 C          62.1412   82.4849   14.6288 C.ar    1  UNL1        0.0170
     17 C          62.1863   81.0718   14.1276 C.ar    1  UNL1        0.0308
     18 C          62.6554   80.7857   12.7319 C.ar    1  UNL1        0.1415
     19 F          62.7006   79.3727   12.2307 F       1  UNL1       -0.2043
     20 C          63.0794   81.9127   11.8373 C.ar    1  UNL1        0.0722
     21 C          63.0343   83.3257   12.3385 C.ar    1  UNL1        0.0181
     22 C          63.5485   81.6266   10.4416 C.3     1  UNL1        0.3432
     23 F          64.5192   82.5535    9.7718 F       1  UNL1       -0.1932
     24 F          63.0470   80.4135    9.7156 F       1  UNL1       -0.1932
     25 S          64.6585   90.7737   13.9321 S.O2    1  UNL1        0.0655
     26 O          65.9572   90.7976   14.6823 O.2     1  UNL1       -0.1527
     27 O          63.3598   90.7498   13.1819 O.2     1  UNL1       -0.1527
     28 N          65.1416   91.8945   13.0601 N.3     1  UNL1       -0.1553
     29 C          66.0080   92.9742   13.6377 C.3     1  UNL1        0.0983
     30 C          66.4911   94.0950   12.7657 C.3     1  UNL1        0.0484
     31 C          66.1077   94.1362   11.3161 C.3     1  UNL1        0.1134
     32 O          66.5908   95.2570   10.4441 O.3     1  UNL1       -0.3844
     33 C          65.2413   93.0566   10.7385 C.3     1  UNL1        0.0484
     34 C          64.7582   91.9357   11.6105 C.3     1  UNL1        0.0983
     35 H          67.3027   94.9355    9.8690 H       1  UNL1        0.2103
@<TRIPOS>BOND
     1     1     2    1
     2     2     3   ar
     3     3     4   ar
     4     4     5    1
     5     4     6   ar
     6     6    25    1
     7    25    26    2
     8    25    27    2
     9    25    28    1
    10    28    29    1
    11    29    30    1
    12    30    31    1
    13    31    32    1
    14    31    33    1
    15    33    34    1
    16     6     7   ar
    17     7     8   ar
    18     8    11    1
    19    11    12    2
    20    11    13   am
    21    13    15    1
    22    15    16   ar
    23    16    17   ar
    24    17    18   ar
    25    18    19    1
    26    18    20   ar
    27    20    22    1
    28    22    23    1
    29    22    24    1
    30    20    21   ar
    31     8     2   ar
    32    21    15   ar
    33    34    28    1
    34     1     9    1
    35     1    10    1
    36    32    35    1
    37    13    14    1
@<TRIPOS>MOLECULE
*****
 35 37 0 0 0
SMALL
GASTEIGER

@<TRIPOS>ATOM
      1 N          60.6918   87.5734    9.1899 N.pl3   1  UNL1       -0.3568
      2 C          61.5889   88.4198   10.0435 C.ar    1  UNL1        0.0482
      3 C          61.7765   89.8731    9.7233 C.ar    1  UNL1        0.0452
      4 C          62.6736   90.7195   10.5769 C.ar    1  UNL1        0.1598
      5 F          62.8612   92.1729   10.2566 F       1  UNL1       -0.2027
      6 C          63.3832   90.1126   11.7508 C.ar    1  UNL1        0.1497
      7 C          63.1956   88.6593   12.0711 C.ar    1  UNL1        0.0280
      8 C          62.2985   87.8129   11.2174 C.ar    1  UNL1        0.0680
      9 H          60.2260   87.9718    8.4194 H       1  UNL1        0.1424
     10 H          60.5687   86.6195    9.4001 H       1  UNL1        0.1424
     11 C          62.1109   86.3595   11.5377 C.2     1  UNL1        0.2507
     12 O          61.1354   85.5374   10.7488 O.2     1  UNL1       -0.2698
     13 N          62.8990   85.7282   12.6470 N.am    1  UNL1       -0.2804
     14 H          63.5393   86.2678   13.1648 H       1  UNL1        0.1552
     15 C          62.7115   84.2749   12.9673 C.ar    1  UNL1        0.0505
     16 C          62.2962   83.8585   14.3472 C.ar    1  UNL1        0.0170
     17 C          62.1087   82.4051   14.6675 C.ar    1  UNL1        0.0308
     18 C          62.3365   81.3681   13.6079 C.ar    1  UNL1        0.1415
     19 F          62.1490   79.9148   13.9283 F       1  UNL1       -0.2043
     20 C          62.7517   81.7845   12.2280 C.ar    1  UNL1        0.0722
     21 C          62.9392   83.2378   11.9077 C.ar    1  UNL1        0.0181
     22 C          62.9795   80.7476   11.1684 C.3     1  UNL1        0.3432
     23 F          63.5370   81.1480    9.8347 F       1  UNL1       -0.1932
     24 F          62.6498   79.3101   11.4425 F       1  UNL1       -0.1932
     25 S          64.2804   90.9590   12.6045 S.O2    1  UNL1        0.0655
     26 O          63.6529   90.3801   13.8379 O.2     1  UNL1       -0.1527
     27 O          64.9078   91.5379   11.3711 O.2     1  UNL1       -0.1527
     28 N          65.1775   91.8054   13.4581 N.3     1  UNL1       -0.1553
     29 C          65.3872   91.4563   14.9018 C.3     1  UNL1        0.0983
     30 C          66.2844   92.3027   15.7554 C.3     1  UNL1        0.0484
     31 C          66.9718   93.4982   15.1654 C.3     1  UNL1        0.1134
     32 O          67.8689   94.3446   16.0191 O.3     1  UNL1       -0.3844
     33 C          66.7621   93.8474   13.7218 C.3     1  UNL1        0.0484
     34 C          65.8649   93.0010   12.8682 C.3     1  UNL1        0.0983
     35 H          68.7950   94.1604   15.7967 H       1  UNL1        0.2103
@<TRIPOS>BOND
     1     1     2    1
     2     2     3   ar
     3     3     4   ar
     4     4     5    1
     5     4     6   ar
     6     6    25    1
     7    25    26    2
     8    25    27    2
     9    25    28    1
    10    28    29    1
    11    29    30    1
    12    30    31    1
    13    31    32    1
    14    31    33    1
    15    33    34    1
    16     6     7   ar
    17     7     8   ar
    18     8    11    1
    19    11    12    2
    20    11    13   am
    21    13    15    1
    22    15    16   ar
    23    16    17   ar
    24    17    18   ar
    25    18    19    1
    26    18    20   ar
    27    20    22    1
    28    22    23    1
    29    22    24    1
    30    20    21   ar
    31     8     2   ar
    32    21    15   ar
    33    34    28    1
    34     1     9    1
    35     1    10    1
    36    32    35    1
    37    13    14    1
@<TRIPOS>MOLECULE
*****
 35 37 0 0 0
SMALL
GASTEIGER

@<TRIPOS>ATOM
      1 N          59.8827   87.4762    9.0998 N.pl3   1  UNL1       -0.3568
      2 C          60.8013   88.2369   10.0096 C.ar    1  UNL1        0.0482
      3 C          60.6912   89.7295   10.1092 C.ar    1  UNL1        0.0452
      4 C          61.6097   90.4902   11.0190 C.ar    1  UNL1        0.1598
      5 F          61.4996   91.9829   11.1186 F       1  UNL1       -0.2027
      6 C          62.6383   89.7583   11.8291 C.ar    1  UNL1        0.1497
      7 C          62.7484   88.2657   11.7294 C.ar    1  UNL1        0.0280
      8 C          61.8298   87.5050   10.8197 C.ar    1  UNL1        0.0680
      9 H          59.2076   87.9566    8.5681 H       1  UNL1        0.1424
     10 H          59.9550   86.4965    9.0344 H       1  UNL1        0.1424
     11 C          61.9399   86.0123   10.7200 C.2     1  UNL1        0.2507
     12 O          61.2921   85.2870    9.5780 O.2     1  UNL1       -0.2698
     13 N          62.6979   85.2449   11.7625 N.am    1  UNL1       -0.2804
     14 H          63.1231   85.7210   12.5120 H       1  UNL1        0.1552
     15 C          62.8080   83.7523   11.6629 C.ar    1  UNL1        0.0505
     16 C          63.4979   83.1280   10.4864 C.ar    1  UNL1        0.0170
     17 C          63.6080   81.6353   10.3868 C.ar    1  UNL1        0.0308
     18 C          63.0282   80.7671   11.4638 C.ar    1  UNL1        0.1415
     19 F          63.1383   79.2745   11.3642 F       1  UNL1       -0.2043
     20 C          62.3383   81.3914   12.6403 C.ar    1  UNL1        0.0722
     21 C          62.2282   82.8840   12.7399 C.ar    1  UNL1        0.0181
     22 C          61.7585   80.5231   13.7172 C.3     1  UNL1        0.3432
     23 F          62.5250   79.3341   14.2159 F       1  UNL1       -0.1932
     24 F          60.4121   80.8438   14.2956 F       1  UNL1       -0.1932
     25 S          63.5568   90.5190   12.7389 S.O2    1  UNL1        0.0655
     26 O          62.9589   89.8223   13.9251 O.2     1  UNL1       -0.1527
     27 O          64.1548   91.2156   11.5526 O.2     1  UNL1       -0.1527
     28 N          64.4753   91.2797   13.6486 N.3     1  UNL1       -0.1553
     29 C          65.6059   92.0807   13.0740 C.3     1  UNL1        0.0983
     30 C          66.5244   92.8414   13.9838 C.3     1  UNL1        0.0484
     31 C          66.3124   92.8011   15.4681 C.3     1  UNL1        0.1134
     32 O          67.2309   93.5618   16.3779 O.3     1  UNL1       -0.3844
     33 C          65.1819   92.0001   16.0427 C.3     1  UNL1        0.0484
     34 C          64.2633   91.2394   15.1330 C.3     1  UNL1        0.0983
     35 H          66.7787   94.3557   16.7037 H       1  UNL1        0.2103
@<TRIPOS>BOND
     1     1     2    1
     2     2     3   ar
     3     3     4   ar
     4     4     5    1
     5     4     6   ar
     6     6    25    1
     7    25    26    2
     8    25    27    2
     9    25    28    1
    10    28    29    1
    11    29    30    1
    12    30    31    1
    13    31    32    1
    14    31    33    1
    15    33    34    1
    16     6     7   ar
    17     7     8   ar
    18     8    11    1
    19    11    12    2
    20    11    13   am
    21    13    15    1
    22    15    16   ar
    23    16    17   ar
    24    17    18   ar
    25    18    19    1
    26    18    20   ar
    27    20    22    1
    28    22    23    1
    29    22    24    1
    30    20    21   ar
    31     8     2   ar
    32    21    15   ar
    33    34    28    1
    34     1     9    1
    35     1    10    1
    36    32    35    1
    37    13    14    1
@<TRIPOS>MOLECULE
*****
 35 37 0 0 0
SMALL
GASTEIGER

@<TRIPOS>ATOM
      1 N          61.9700   90.8488   10.3026 N.pl3   1  UNL1       -0.3568
      2 C          62.0813   89.4033   10.6876 C.ar    1  UNL1        0.0482
      3 C          61.2556   88.3722    9.9771 C.ar    1  UNL1        0.0452
      4 C          61.3669   86.9267   10.3621 C.ar    1  UNL1        0.1598
      5 F          60.5411   85.8956    9.6515 F       1  UNL1       -0.2027
      6 C          62.3040   86.5124   11.4576 C.ar    1  UNL1        0.1497
      7 C          63.1298   87.5435   12.1680 C.ar    1  UNL1        0.0280
      8 C          63.0184   88.9890   11.7831 C.ar    1  UNL1        0.0680
      9 H          61.3549   91.1207    9.5836 H       1  UNL1        0.1424
     10 H          62.5120   91.5256   10.7689 H       1  UNL1        0.1424
     11 C          63.8443   90.0201   12.4936 C.2     1  UNL1        0.2507
     12 O          64.1638   91.3207   11.8182 O.2     1  UNL1       -0.2698
     13 N          64.3506   89.7506   13.8796 N.am    1  UNL1       -0.2804
     14 H          64.1408   88.8969   14.3230 H       1  UNL1        0.1552
     15 C          65.1763   90.7817   14.5902 C.ar    1  UNL1        0.0505
     16 C          64.6124   91.5076   15.7755 C.ar    1  UNL1        0.0170
     17 C          65.4382   92.5387   16.4861 C.ar    1  UNL1        0.0308
     18 C          66.8280   92.8438   16.0113 C.ar    1  UNL1        0.1415
     19 F          67.6538   93.8749   16.7219 F       1  UNL1       -0.2043
     20 C          67.3920   92.1179   14.8260 C.ar    1  UNL1        0.0722
     21 C          66.5662   91.0868   14.1154 C.ar    1  UNL1        0.0181
     22 C          68.7817   92.4230   14.3512 C.3     1  UNL1        0.3432
     23 F          69.3194   91.7502   13.1231 F       1  UNL1       -0.1932
     24 F          69.6339   93.4010   15.1046 F       1  UNL1       -0.1932
     25 S          62.4154   85.0669   11.8425 S.O2    1  UNL1        0.0655
     26 O          62.8394   84.7272   10.4444 O.2     1  UNL1       -0.1527
     27 O          61.9914   85.4066   13.2407 O.2     1  UNL1       -0.1527
     28 N          62.5267   83.6214   12.2275 N.3     1  UNL1       -0.1553
     29 C          62.3320   83.2087   13.6564 C.3     1  UNL1        0.0983
     30 C          62.4433   81.7632   14.0414 C.3     1  UNL1        0.0484
     31 C          62.7494   80.7305   12.9975 C.3     1  UNL1        0.1134
     32 O          62.8607   79.2850   13.3825 O.3     1  UNL1       -0.3844
     33 C          62.9441   81.1432   11.5686 C.3     1  UNL1        0.0484
     34 C          62.8327   82.5887   11.1836 C.3     1  UNL1        0.0983
     35 H          62.0652   78.8112   13.0935 H       1  UNL1        0.2103
@<TRIPOS>BOND
     1     1     2    1
     2     2     3   ar
     3     3     4   ar
     4     4     5    1
     5     4     6   ar
     6     6    25    1
     7    25    26    2
     8    25    27    2
     9    25    28    1
    10    28    29    1
    11    29    30    1
    12    30    31    1
    13    31    32    1
    14    31    33    1
    15    33    34    1
    16     6     7   ar
    17     7     8   ar
    18     8    11    1
    19    11    12    2
    20    11    13   am
    21    13    15    1
    22    15    16   ar
    23    16    17   ar
    24    17    18   ar
    25    18    19    1
    26    18    20   ar
    27    20    22    1
    28    22    23    1
    29    22    24    1
    30    20    21   ar
    31     8     2   ar
    32    21    15   ar
    33    34    28    1
    34     1     9    1
    35     1    10    1
    36    32    35    1
    37    13    14    1
