@<TRIPOS>MOLECULE
*****
 29 32 0 0 0
SMALL
GASTEIGER

@<TRIPOS>ATOM
      1 C          64.1236   91.2187   12.5353 C.ar    1  UNL1        0.1293
      2 C          64.5792   92.4006   11.7319 C.ar    1  UNL1        0.1175
      3 N          65.6308   93.3194   12.2794 N.ar    1  UNL1       -0.2424
      4 C          66.2269   93.0563   13.6306 C.ar    1  UNL1        0.0836
      5 C          67.2785   93.9751   14.1782 C.ar    1  UNL1        0.0487
      6 C          67.8745   93.7120   15.5293 C.ar    1  UNL1        0.1416
      7 F          68.9262   94.6308   16.0770 F       1  UNL1       -0.2041
      8 C          67.4189   92.5301   16.3328 C.ar    1  UNL1        0.0297
      9 C          66.3673   91.6113   15.7852 C.ar    1  UNL1        0.0038
     10 C          65.7713   91.8744   14.4341 C.ar    1  UNL1        0.0191
     11 C          64.7196   90.9556   13.8864 C.ar    1  UNL1        0.0205
     12 C          64.2640   89.7737   14.6899 C.ar    1  UNL1        0.0014
     13 C          63.4765   89.9818   15.9496 C.ar    1  UNL1        0.0009
     14 C          63.0209   88.7999   16.7531 C.ar    1  UNL1        0.0114
     15 C          63.3528   87.4100   16.2969 C.ar    1  UNL1        0.0577
     16 CL         62.8972   86.2281   17.1004 Cl      1  UNL1       -0.0822
     17 C          64.1403   87.2020   15.0373 C.ar    1  UNL1        0.0114
     18 C          64.5959   88.3839   14.2338 C.ar    1  UNL1        0.0009
     19 S          63.0719   90.2999   11.9877 S.O2    1  UNL1        0.0289
     20 O          63.8499   90.1700   10.7118 O.2     1  UNL1       -0.1642
     21 O          62.2939   90.4299   13.2635 O.2     1  UNL1       -0.1642
     22 C          61.3337   87.4332    9.8639 C.ar    1  UNL1        0.0697
     23 C          59.9171   87.5436   10.3446 C.ar    1  UNL1        0.0104
     24 C          59.5521   88.5728   11.3730 C.ar    1  UNL1        0.0020
     25 C          60.6037   89.4916   11.9207 C.ar    1  UNL1        0.0188
     26 C          62.0203   89.3812   11.4400 C.ar    1  UNL1        0.1110
     27 C          62.3853   88.3520   10.4116 C.ar    1  UNL1        0.0290
     28 N          62.0637   85.3750    7.8071 N.1     1  UNL1       -0.1908
     29 C          61.6987   86.4041    8.8355 C.1     1  UNL1        0.1005
@<TRIPOS>BOND
     1    28    29    3
     2    29    22    1
     3    22    23   ar
     4    23    24   ar
     5    24    25   ar
     6    25    26   ar
     7    26    19    1
     8    19    20    2
     9    19    21    2
    10    19     1    1
    11     1     2   ar
    12     2     3   ar
    13     3     4   ar
    14     4     5   ar
    15     5     6   ar
    16     6     7    1
    17     6     8   ar
    18     8     9   ar
    19     9    10   ar
    20    10    11   ar
    21    11    12    1
    22    12    13   ar
    23    13    14   ar
    24    14    15   ar
    25    15    16    1
    26    15    17   ar
    27    17    18   ar
    28    26    27   ar
    29    27    22   ar
    30    11     1   ar
    31    18    12   ar
    32    10     4   ar
@<TRIPOS>MOLECULE
*****
 29 32 0 0 0
SMALL
GASTEIGER

@<TRIPOS>ATOM
      1 C          64.7759   90.4770   14.3586 C.ar    1  UNL1        0.1293
      2 C          65.8271   91.3282   15.0070 C.ar    1  UNL1        0.1175
      3 N          66.3866   92.5139   14.2784 N.ar    1  UNL1       -0.2424
      4 C          65.8948   92.8485   12.9013 C.ar    1  UNL1        0.0836
      5 C          66.4543   94.0342   12.1726 C.ar    1  UNL1        0.0487
      6 C          65.9626   94.3688   10.7956 C.ar    1  UNL1        0.1416
      7 F          66.5220   95.5546   10.0669 F       1  UNL1       -0.2041
      8 C          64.9113   93.5176   10.1473 C.ar    1  UNL1        0.0297
      9 C          64.3519   92.3318   10.8759 C.ar    1  UNL1        0.0038
     10 C          64.8436   91.9973   12.2529 C.ar    1  UNL1        0.0191
     11 C          64.2841   90.8115   12.9816 C.ar    1  UNL1        0.0205
     12 C          63.2329   89.9603   12.3333 C.ar    1  UNL1        0.0014
     13 C          63.4884   88.5007   12.1002 C.ar    1  UNL1        0.0009
     14 C          62.4372   87.6495   11.4518 C.ar    1  UNL1        0.0114
     15 C          61.1305   88.2579   11.0365 C.ar    1  UNL1        0.0577
     16 CL         60.0792   87.4067   10.3881 Cl      1  UNL1       -0.0822
     17 C          60.8751   89.7175   11.2696 C.ar    1  UNL1        0.0114
     18 C          61.9263   90.5687   11.9179 C.ar    1  UNL1        0.0009
     19 S          64.2164   89.2912   15.0874 S.O2    1  UNL1        0.0289
     20 O          65.3491   88.4469   14.5831 O.2     1  UNL1       -0.1642
     21 O          63.0838   90.1354   15.5916 O.2     1  UNL1       -0.1642
     22 C          63.3021   85.5381   15.9974 C.ar    1  UNL1        0.0697
     23 C          62.5382   85.7338   17.2734 C.ar    1  UNL1        0.0104
     24 C          62.3337   87.1154   17.8207 C.ar    1  UNL1        0.0020
     25 C          62.8931   88.3011   17.0920 C.ar    1  UNL1        0.0188
     26 C          63.6570   88.1054   15.8160 C.ar    1  UNL1        0.1110
     27 C          63.8616   86.7239   15.2687 C.ar    1  UNL1        0.0290
     28 N          63.7112   82.7751   14.9028 N.1     1  UNL1       -0.1908
     29 C          63.5067   84.1566   15.4501 C.1     1  UNL1        0.1005
@<TRIPOS>BOND
     1    28    29    3
     2    29    22    1
     3    22    23   ar
     4    23    24   ar
     5    24    25   ar
     6    25    26   ar
     7    26    19    1
     8    19    20    2
     9    19    21    2
    10    19     1    1
    11     1     2   ar
    12     2     3   ar
    13     3     4   ar
    14     4     5   ar
    15     5     6   ar
    16     6     7    1
    17     6     8   ar
    18     8     9   ar
    19     9    10   ar
    20    10    11   ar
    21    11    12    1
    22    12    13   ar
    23    13    14   ar
    24    14    15   ar
    25    15    16    1
    26    15    17   ar
    27    17    18   ar
    28    26    27   ar
    29    27    22   ar
    30    11     1   ar
    31    18    12   ar
    32    10     4   ar
@<TRIPOS>MOLECULE
*****
 29 32 0 0 0
SMALL
GASTEIGER

@<TRIPOS>ATOM
      1 C          63.5915   85.9332   13.5489 C.ar    1  UNL1        0.1293
      2 C          64.3247   86.3268   14.7969 C.ar    1  UNL1        0.1175
      3 N          64.6825   87.7639   15.0350 N.ar    1  UNL1       -0.2424
      4 C          64.3069   88.8075   14.0250 C.ar    1  UNL1        0.0836
      5 C          64.6647   90.2446   14.2630 C.ar    1  UNL1        0.0487
      6 C          64.2892   91.2881   13.2531 C.ar    1  UNL1        0.1416
      7 F          64.6469   92.7253   13.4911 F       1  UNL1       -0.2041
      8 C          63.5559   90.8945   12.0051 C.ar    1  UNL1        0.0297
      9 C          63.1982   89.4574   11.7671 C.ar    1  UNL1        0.0038
     10 C          63.5737   88.4139   12.7770 C.ar    1  UNL1        0.0191
     11 C          63.2160   86.9767   12.5390 C.ar    1  UNL1        0.0205
     12 C          62.4827   86.5831   11.2910 C.ar    1  UNL1        0.0014
     13 C          63.1641   85.7382   10.2557 C.ar    1  UNL1        0.0009
     14 C          62.4309   85.3447    9.0077 C.ar    1  UNL1        0.0114
     15 C          61.0162   85.7960    8.7951 C.ar    1  UNL1        0.0577
     16 CL         60.2830   85.4024    7.5471 Cl      1  UNL1       -0.0822
     17 C          60.3349   86.6408    9.8304 C.ar    1  UNL1        0.0114
     18 C          61.0681   87.0344   11.0784 C.ar    1  UNL1        0.0009
     19 S          63.2337   84.4960   13.3109 S.O2    1  UNL1        0.0289
     20 O          64.6271   84.2299   12.8235 O.2     1  UNL1       -0.1642
     21 O          61.8403   84.7620   13.7983 O.2     1  UNL1       -0.1642
     22 C          61.3081   81.0307   13.4952 C.ar    1  UNL1        0.0697
     23 C          62.1607   80.1845   12.5969 C.ar    1  UNL1        0.0104
     24 C          63.3710   80.7755   11.9365 C.ar    1  UNL1        0.0020
     25 C          63.7286   82.2126   12.1745 C.ar    1  UNL1        0.0188
     26 C          62.8761   83.0589   13.0729 C.ar    1  UNL1        0.1110
     27 C          61.6658   82.4679   13.7332 C.ar    1  UNL1        0.0290
     28 N          58.8876   79.8489   14.8159 N.1     1  UNL1       -0.1908
     29 C          60.0979   80.4398   14.1556 C.1     1  UNL1        0.1005
@<TRIPOS>BOND
     1    28    29    3
     2    29    22    1
     3    22    23   ar
     4    23    24   ar
     5    24    25   ar
     6    25    26   ar
     7    26    19    1
     8    19    20    2
     9    19    21    2
    10    19     1    1
    11     1     2   ar
    12     2     3   ar
    13     3     4   ar
    14     4     5   ar
    15     5     6   ar
    16     6     7    1
    17     6     8   ar
    18     8     9   ar
    19     9    10   ar
    20    10    11   ar
    21    11    12    1
    22    12    13   ar
    23    13    14   ar
    24    14    15   ar
    25    15    16    1
    26    15    17   ar
    27    17    18   ar
    28    26    27   ar
    29    27    22   ar
    30    11     1   ar
    31    18    12   ar
    32    10     4   ar
@<TRIPOS>MOLECULE
*****
 29 32 0 0 0
SMALL
GASTEIGER

@<TRIPOS>ATOM
      1 C          63.5146   86.0778   13.6068 C.ar    1  UNL1        0.1293
      2 C          64.2493   86.5224   14.8366 C.ar    1  UNL1        0.1175
      3 N          64.6530   87.9587   14.9909 N.ar    1  UNL1       -0.2424
      4 C          64.3221   88.9506   13.9153 C.ar    1  UNL1        0.0836
      5 C          64.7258   90.3869   14.0697 C.ar    1  UNL1        0.0487
      6 C          64.3948   91.3787   12.9941 C.ar    1  UNL1        0.1416
      7 F          64.7985   92.8151   13.1484 F       1  UNL1       -0.2041
      8 C          63.6601   90.9341   11.7643 C.ar    1  UNL1        0.0297
      9 C          63.2564   89.4977   11.6100 C.ar    1  UNL1        0.0038
     10 C          63.5873   88.5060   12.6855 C.ar    1  UNL1        0.0191
     11 C          63.1836   87.0695   12.5312 C.ar    1  UNL1        0.0205
     12 C          62.4489   86.6249   11.3014 C.ar    1  UNL1        0.0014
     13 C          61.0326   87.0638   11.0740 C.ar    1  UNL1        0.0009
     14 C          60.2979   86.6192    9.8442 C.ar    1  UNL1        0.0114
     15 C          60.9795   85.7357    8.8417 C.ar    1  UNL1        0.0577
     16 CL         60.2448   85.2911    7.6118 Cl      1  UNL1       -0.0822
     17 C          62.3957   85.2969    9.0690 C.ar    1  UNL1        0.0114
     18 C          63.1304   85.7415   10.2989 C.ar    1  UNL1        0.0009
     19 S          63.1109   84.6413   13.4525 S.O2    1  UNL1        0.0289
     20 O          64.4579   84.3251   12.8732 O.2     1  UNL1       -0.1642
     21 O          61.7640   84.9576   14.0318 O.2     1  UNL1       -0.1642
     22 C          62.6004   81.0391   11.8672 C.ar    1  UNL1        0.0697
     23 C          61.9000   80.3321   12.9896 C.ar    1  UNL1        0.0104
     24 C          61.6032   81.0616   14.2662 C.ar    1  UNL1        0.0020
     25 C          62.0069   82.4980   14.4205 C.ar    1  UNL1        0.0188
     26 C          62.7073   83.2050   13.2982 C.ar    1  UNL1        0.1110
     27 C          63.0041   82.4755   12.0216 C.ar    1  UNL1        0.0290
     28 N          63.1940   79.5802    9.3140 N.1     1  UNL1       -0.1908
     29 C          62.8972   80.3097   10.5906 C.1     1  UNL1        0.1005
@<TRIPOS>BOND
     1    28    29    3
     2    29    22    1
     3    22    23   ar
     4    23    24   ar
     5    24    25   ar
     6    25    26   ar
     7    26    19    1
     8    19    20    2
     9    19    21    2
    10    19     1    1
    11     1     2   ar
    12     2     3   ar
    13     3     4   ar
    14     4     5   ar
    15     5     6   ar
    16     6     7    1
    17     6     8   ar
    18     8     9   ar
    19     9    10   ar
    20    10    11   ar
    21    11    12    1
    22    12    13   ar
    23    13    14   ar
    24    14    15   ar
    25    15    16    1
    26    15    17   ar
    27    17    18   ar
    28    26    27   ar
    29    27    22   ar
    30    11     1   ar
    31    18    12   ar
    32    10     4   ar
@<TRIPOS>MOLECULE
*****
 29 32 0 0 0
SMALL
GASTEIGER

@<TRIPOS>ATOM
      1 C          64.2614   91.3931   12.6405 C.ar    1  UNL1        0.1293
      2 C          64.7639   92.5645   11.8499 C.ar    1  UNL1        0.1175
      3 N          65.8768   93.4124   12.3906 N.ar    1  UNL1       -0.2424
      4 C          66.4873   93.0889   13.7221 C.ar    1  UNL1        0.0836
      5 C          67.6002   93.9368   14.2628 C.ar    1  UNL1        0.0487
      6 C          68.2107   93.6132   15.5942 C.ar    1  UNL1        0.1416
      7 F          69.3236   94.4611   16.1350 F       1  UNL1       -0.2041
      8 C          67.7082   92.4417   16.3848 C.ar    1  UNL1        0.0297
      9 C          66.5952   91.5938   15.8441 C.ar    1  UNL1        0.0038
     10 C          65.9848   91.9174   14.5127 C.ar    1  UNL1        0.0191
     11 C          64.8718   91.0695   13.9719 C.ar    1  UNL1        0.0205
     12 C          64.3693   89.8980   14.7626 C.ar    1  UNL1        0.0014
     13 C          64.6636   88.5009   14.3024 C.ar    1  UNL1        0.0009
     14 C          64.1611   87.3294   15.0931 C.ar    1  UNL1        0.0114
     15 C          63.3644   87.5550   16.3438 C.ar    1  UNL1        0.0577
     16 CL         62.8619   86.3835   17.1345 Cl      1  UNL1       -0.0822
     17 C          63.0701   88.9520   16.8039 C.ar    1  UNL1        0.0114
     18 C          63.5726   90.1235   16.0133 C.ar    1  UNL1        0.0009
     19 S          63.1484   90.5451   12.0997 S.O2    1  UNL1        0.0289
     20 O          63.8973   90.3849   10.8100 O.2     1  UNL1       -0.1642
     21 O          62.3996   90.7054   13.3895 O.2     1  UNL1       -0.1642
     22 C          59.6227   88.7550   11.7607 C.ar    1  UNL1        0.0697
     23 C          59.8097   88.0015   10.4773 C.ar    1  UNL1        0.0104
     24 C          61.1096   88.0959    9.7346 C.ar    1  UNL1        0.0020
     25 C          62.2224   88.9437   10.2755 C.ar    1  UNL1        0.0188
     26 C          62.0355   89.6973   11.5589 C.ar    1  UNL1        0.1110
     27 C          60.7357   89.6029   12.3015 C.ar    1  UNL1        0.0290
     28 N          57.0231   88.5663   13.2460 N.1     1  UNL1       -0.1908
     29 C          58.3229   88.6607   12.5034 C.1     1  UNL1        0.1005
@<TRIPOS>BOND
     1    28    29    3
     2    29    22    1
     3    22    23   ar
     4    23    24   ar
     5    24    25   ar
     6    25    26   ar
     7    26    19    1
     8    19    20    2
     9    19    21    2
    10    19     1    1
    11     1     2   ar
    12     2     3   ar
    13     3     4   ar
    14     4     5   ar
    15     5     6   ar
    16     6     7    1
    17     6     8   ar
    18     8     9   ar
    19     9    10   ar
    20    10    11   ar
    21    11    12    1
    22    12    13   ar
    23    13    14   ar
    24    14    15   ar
    25    15    16    1
    26    15    17   ar
    27    17    18   ar
    28    26    27   ar
    29    27    22   ar
    30    11     1   ar
    31    18    12   ar
    32    10     4   ar
@<TRIPOS>MOLECULE
*****
 29 32 0 0 0
SMALL
GASTEIGER

@<TRIPOS>ATOM
      1 C          62.6201   92.9398    1.7579 C.ar    1  UNL1        0.1293
      2 C          63.4639   92.0047    2.5726 C.ar    1  UNL1        0.1175
      3 N          62.8535   91.2431    3.7116 N.ar    1  UNL1       -0.2424
      4 C          61.3992   91.4165    4.0359 C.ar    1  UNL1        0.0836
      5 C          60.7888   90.6549    5.1748 C.ar    1  UNL1        0.0487
      6 C          59.3346   90.8283    5.4991 C.ar    1  UNL1        0.1416
      7 F          58.7241   90.0666    6.6381 F       1  UNL1       -0.2041
      8 C          58.4908   91.7633    4.6844 C.ar    1  UNL1        0.0297
      9 C          59.1012   92.5249    3.5454 C.ar    1  UNL1        0.0038
     10 C          60.5554   92.3515    3.2212 C.ar    1  UNL1        0.0191
     11 C          61.1659   93.1132    2.0822 C.ar    1  UNL1        0.0205
     12 C          60.3221   94.0482    1.2675 C.ar    1  UNL1        0.0014
     13 C          59.4310   93.5074    0.1888 C.ar    1  UNL1        0.0009
     14 C          58.5872   94.4424   -0.6259 C.ar    1  UNL1        0.0114
     15 C          58.6346   95.9183   -0.3619 C.ar    1  UNL1        0.0577
     16 CL         57.7908   96.8533   -1.1767 Cl      1  UNL1       -0.0822
     17 C          59.5257   96.4591    0.7166 C.ar    1  UNL1        0.0114
     18 C          60.3695   95.5240    1.5313 C.ar    1  UNL1        0.0009
     19 S          63.2306   93.7014    0.6189 S.O2    1  UNL1        0.0289
     20 O          62.6350   92.7260   -0.3525 O.2     1  UNL1       -0.1642
     21 O          63.8262   94.6768    1.5904 O.2     1  UNL1       -0.1642
     22 C          64.3123   94.7141   -3.0627 C.ar    1  UNL1        0.0697
     23 C          65.0620   95.9861   -2.7981 C.ar    1  UNL1        0.0104
     24 C          65.2012   96.4965   -1.3945 C.ar    1  UNL1        0.0020
     25 C          64.5907   95.7350   -0.2555 C.ar    1  UNL1        0.0188
     26 C          63.8411   94.4630   -0.5201 C.ar    1  UNL1        0.1110
     27 C          63.7018   93.9525   -1.9236 C.ar    1  UNL1        0.0290
     28 N          64.0339   93.6933   -5.8698 N.1     1  UNL1       -0.1908
     29 C          64.1731   94.2037   -4.4663 C.1     1  UNL1        0.1005
@<TRIPOS>BOND
     1    28    29    3
     2    29    22    1
     3    22    23   ar
     4    23    24   ar
     5    24    25   ar
     6    25    26   ar
     7    26    19    1
     8    19    20    2
     9    19    21    2
    10    19     1    1
    11     1     2   ar
    12     2     3   ar
    13     3     4   ar
    14     4     5   ar
    15     5     6   ar
    16     6     7    1
    17     6     8   ar
    18     8     9   ar
    19     9    10   ar
    20    10    11   ar
    21    11    12    1
    22    12    13   ar
    23    13    14   ar
    24    14    15   ar
    25    15    16    1
    26    15    17   ar
    27    17    18   ar
    28    26    27   ar
    29    27    22   ar
    30    11     1   ar
    31    18    12   ar
    32    10     4   ar
@<TRIPOS>MOLECULE
*****
 29 32 0 0 0
SMALL
GASTEIGER

@<TRIPOS>ATOM
      1 C          62.5274   89.9705   11.7719 C.ar    1  UNL1        0.1293
      2 C          61.8437   90.9231   10.8363 C.ar    1  UNL1        0.1175
      3 N          61.0235   90.3959    9.6965 N.ar    1  UNL1       -0.2424
      4 C          60.8869   88.9161    9.4922 C.ar    1  UNL1        0.0836
      5 C          60.0667   88.3890    8.3523 C.ar    1  UNL1        0.0487
      6 C          59.9301   86.9093    8.1480 C.ar    1  UNL1        0.1416
      7 F          59.1099   86.3820    7.0081 F       1  UNL1       -0.2041
      8 C          60.6138   85.9567    9.0835 C.ar    1  UNL1        0.0297
      9 C          61.4341   86.4839   10.2234 C.ar    1  UNL1        0.0038
     10 C          61.5706   87.9636   10.4277 C.ar    1  UNL1        0.0191
     11 C          62.3909   88.4908   11.5676 C.ar    1  UNL1        0.0205
     12 C          63.0746   87.5383   12.5031 C.ar    1  UNL1        0.0014
     13 C          63.9124   88.0655   13.6302 C.ar    1  UNL1        0.0009
     14 C          64.5961   87.1130   14.5657 C.ar    1  UNL1        0.0114
     15 C          64.4420   85.6332   14.3742 C.ar    1  UNL1        0.0577
     16 CL         65.1257   84.6807   15.3097 Cl      1  UNL1       -0.0822
     17 C          63.6042   85.1060   13.2472 C.ar    1  UNL1        0.0114
     18 C          62.9205   86.0586   12.3116 C.ar    1  UNL1        0.0009
     19 S          63.3477   90.4978   12.9118 S.O2    1  UNL1        0.0289
     20 O          64.4172   90.9179   11.9477 O.2     1  UNL1       -0.1642
     21 O          62.2781   90.0776   13.8758 O.2     1  UNL1       -0.1642
     22 C          66.4122   91.9647   14.9628 C.ar    1  UNL1        0.0697
     23 C          65.8085   92.0795   16.3312 C.ar    1  UNL1        0.0104
     24 C          64.3845   91.6669   16.5597 C.ar    1  UNL1        0.0020
     25 C          63.5643   91.1397   15.4199 C.ar    1  UNL1        0.0188
     26 C          64.1679   91.0250   14.0516 C.ar    1  UNL1        0.1110
     27 C          65.5918   91.4375   13.8230 C.ar    1  UNL1        0.0290
     28 N          69.2600   92.7897   14.5056 N.1     1  UNL1       -0.1908
     29 C          67.8361   92.3772   14.7342 C.1     1  UNL1        0.1005
@<TRIPOS>BOND
     1    28    29    3
     2    29    22    1
     3    22    23   ar
     4    23    24   ar
     5    24    25   ar
     6    25    26   ar
     7    26    19    1
     8    19    20    2
     9    19    21    2
    10    19     1    1
    11     1     2   ar
    12     2     3   ar
    13     3     4   ar
    14     4     5   ar
    15     5     6   ar
    16     6     7    1
    17     6     8   ar
    18     8     9   ar
    19     9    10   ar
    20    10    11   ar
    21    11    12    1
    22    12    13   ar
    23    13    14   ar
    24    14    15   ar
    25    15    16    1
    26    15    17   ar
    27    17    18   ar
    28    26    27   ar
    29    27    22   ar
    30    11     1   ar
    31    18    12   ar
    32    10     4   ar
@<TRIPOS>MOLECULE
*****
 29 32 0 0 0
SMALL
GASTEIGER

@<TRIPOS>ATOM
      1 C          63.1008   94.0867   -1.1785 C.ar    1  UNL1        0.1293
      2 C          64.2339   93.6246   -0.3110 C.ar    1  UNL1        0.1175
      3 N          63.9534   93.0481    1.0451 N.ar    1  UNL1       -0.2424
      4 C          62.5398   92.9336    1.5337 C.ar    1  UNL1        0.0836
      5 C          62.2593   92.3571    2.8897 C.ar    1  UNL1        0.0487
      6 C          60.8457   92.2426    3.3782 C.ar    1  UNL1        0.1416
      7 F          60.5652   91.6661    4.7343 F       1  UNL1       -0.2041
      8 C          59.7126   92.7047    2.5107 C.ar    1  UNL1        0.0297
      9 C          59.9931   93.2813    1.1547 C.ar    1  UNL1        0.0038
     10 C          61.4067   93.3957    0.6662 C.ar    1  UNL1        0.0191
     11 C          61.6872   93.9723   -0.6900 C.ar    1  UNL1        0.0205
     12 C          60.5541   94.4344   -1.5575 C.ar    1  UNL1        0.0014
     13 C          59.9540   93.5015   -2.5673 C.ar    1  UNL1        0.0009
     14 C          58.8209   93.9636   -3.4348 C.ar    1  UNL1        0.0114
     15 C          58.2880   95.3586   -3.2925 C.ar    1  UNL1        0.0577
     16 CL         57.1549   95.8207   -4.1600 Cl      1  UNL1       -0.0822
     17 C          58.8881   96.2913   -2.2827 C.ar    1  UNL1        0.0114
     18 C          60.0212   95.8292   -1.4152 C.ar    1  UNL1        0.0009
     19 S          63.3813   94.6633   -2.5346 S.O2    1  UNL1        0.0289
     20 O          63.3112   93.2897   -3.1330 O.2     1  UNL1       -0.1642
     21 O          63.4514   96.0369   -1.9361 O.2     1  UNL1       -0.1642
     22 C          65.3484   96.1622   -5.6384 C.ar    1  UNL1        0.0697
     23 C          64.2229   96.3928   -6.6028 C.ar    1  UNL1        0.0104
     24 C          62.8169   96.0468   -6.2111 C.ar    1  UNL1        0.0020
     25 C          62.5363   95.4703   -4.8551 C.ar    1  UNL1        0.0188
     26 C          63.6618   95.2398   -3.8906 C.ar    1  UNL1        0.1110
     27 C          65.0678   95.5857   -4.2823 C.ar    1  UNL1        0.0290
     28 N          68.1604   96.8541   -6.4216 N.1     1  UNL1       -0.1908
     29 C          66.7544   96.5082   -6.0300 C.1     1  UNL1        0.1005
@<TRIPOS>BOND
     1    28    29    3
     2    29    22    1
     3    22    23   ar
     4    23    24   ar
     5    24    25   ar
     6    25    26   ar
     7    26    19    1
     8    19    20    2
     9    19    21    2
    10    19     1    1
    11     1     2   ar
    12     2     3   ar
    13     3     4   ar
    14     4     5   ar
    15     5     6   ar
    16     6     7    1
    17     6     8   ar
    18     8     9   ar
    19     9    10   ar
    20    10    11   ar
    21    11    12    1
    22    12    13   ar
    23    13    14   ar
    24    14    15   ar
    25    15    16    1
    26    15    17   ar
    27    17    18   ar
    28    26    27   ar
    29    27    22   ar
    30    11     1   ar
    31    18    12   ar
    32    10     4   ar
@<TRIPOS>MOLECULE
*****
 29 32 0 0 0
SMALL
GASTEIGER

@<TRIPOS>ATOM
      1 C          63.2063   93.9542   -0.7426 C.ar    1  UNL1        0.1293
      2 C          64.3714   93.4067    0.0272 C.ar    1  UNL1        0.1175
      3 N          64.1484   92.7410    1.3528 N.ar    1  UNL1       -0.2424
      4 C          62.7601   92.6230    1.9086 C.ar    1  UNL1        0.0836
      5 C          62.5371   91.9574    3.2342 C.ar    1  UNL1        0.0487
      6 C          61.1489   91.8393    3.7899 C.ar    1  UNL1        0.1416
      7 F          60.9258   91.1737    5.1156 F       1  UNL1       -0.2041
      8 C          59.9837   92.3869    3.0201 C.ar    1  UNL1        0.0297
      9 C          60.2068   93.0525    1.6946 C.ar    1  UNL1        0.0038
     10 C          61.5950   93.1705    1.1388 C.ar    1  UNL1        0.0191
     11 C          61.8181   93.8362   -0.1868 C.ar    1  UNL1        0.0205
     12 C          60.6529   94.3837   -0.9566 C.ar    1  UNL1        0.0014
     13 C          60.2118   95.8013   -0.7421 C.ar    1  UNL1        0.0009
     14 C          59.0467   96.3489   -1.5119 C.ar    1  UNL1        0.0114
     15 C          58.3226   95.4788   -2.4962 C.ar    1  UNL1        0.0577
     16 CL         57.1574   96.0264   -3.2660 Cl      1  UNL1       -0.0822
     17 C          58.7637   94.0613   -2.7107 C.ar    1  UNL1        0.0114
     18 C          59.9288   93.5138   -1.9409 C.ar    1  UNL1        0.0009
     19 S          63.4294   94.6199   -2.0682 S.O2    1  UNL1        0.0289
     20 O          63.2754   93.2970   -2.7583 O.2     1  UNL1       -0.1642
     21 O          63.5834   95.9427   -1.3781 O.2     1  UNL1       -0.1642
     22 C          62.7277   96.1395   -5.6666 C.ar    1  UNL1        0.0697
     23 C          64.0986   96.6166   -6.0450 C.ar    1  UNL1        0.0104
     24 C          65.2464   96.4280   -5.0979 C.ar    1  UNL1        0.0020
     25 C          65.0233   95.7624   -3.7723 C.ar    1  UNL1        0.0188
     26 C          63.6524   95.2854   -3.3938 C.ar    1  UNL1        0.1110
     27 C          62.5047   95.4739   -4.3409 C.ar    1  UNL1        0.0290
     28 N          60.4322   96.5166   -7.5608 N.1     1  UNL1       -0.1908
     29 C          61.5800   96.3281   -6.6137 C.1     1  UNL1        0.1005
@<TRIPOS>BOND
     1    28    29    3
     2    29    22    1
     3    22    23   ar
     4    23    24   ar
     5    24    25   ar
     6    25    26   ar
     7    26    19    1
     8    19    20    2
     9    19    21    2
    10    19     1    1
    11     1     2   ar
    12     2     3   ar
    13     3     4   ar
    14     4     5   ar
    15     5     6   ar
    16     6     7    1
    17     6     8   ar
    18     8     9   ar
    19     9    10   ar
    20    10    11   ar
    21    11    12    1
    22    12    13   ar
    23    13    14   ar
    24    14    15   ar
    25    15    16    1
    26    15    17   ar
    27    17    18   ar
    28    26    27   ar
    29    27    22   ar
    30    11     1   ar
    31    18    12   ar
    32    10     4   ar
