@<TRIPOS>MOLECULE
*****
 58 64 0 0 0
SMALL
GASTEIGER

@<TRIPOS>ATOM
      1 N          64.5630   83.1609   13.2438 N.3     1  UNL1       -0.1862
      2 C          65.1865   84.0396   14.2873 C.3     1  UNL1        0.1775
      3 C          64.7683   85.4752   14.4065 C.2     1  UNL1        0.2452
      4 O          65.3919   86.3540   15.4501 O.2     1  UNL1       -0.2732
      5 N          63.7265   86.0320   13.4821 N.am    1  UNL1       -0.2541
      6 C          63.1029   85.1533   12.4386 C.3     1  UNL1        0.1908
      7 C          62.0611   85.7101   11.5141 C.3     1  UNL1        0.1359
      8 N          61.6428   87.1457   11.6333 N.am    1  UNL1       -0.2705
      9 C          62.2664   88.0245   12.6768 C.2     1  UNL1        0.2445
     10 O          61.8482   89.4600   12.7960 O.2     1  UNL1       -0.2731
     11 C          63.3082   87.4676   13.6012 C.3     1  UNL1        0.1577
     12 N          63.5212   83.7177   12.3195 N.am    1  UNL1       -0.1863
     13 C          62.8976   82.8390   11.2759 C.2     1  UNL1        0.3191
     14 O          61.8558   83.3958   10.3515 O.2     1  UNL1       -0.2512
     15 N          63.3158   81.4034   11.1567 N.am    1  UNL1       -0.2836
     16 H          63.9996   81.0380   11.7635 H       1  UNL1        0.1513
     17 C          64.9812   81.7253   13.1247 C.3     1  UNL1        0.1188
     18 C          62.8153   80.8602   14.2693 C.2     1  UNL1       -0.0034
     19 C          64.2563   80.6660   13.9007 C.2     1  UNL1       -0.0071
     20 C          60.6010   87.7026   10.7089 C.3     1  UNL1        0.1217
     21 C          60.9401   88.8449    9.7978 C.ar    1  UNL1        0.0135
     22 C          61.9735   89.8513   10.2094 C.ar    1  UNL1       -0.0012
     23 C          62.3127   90.9936    9.2984 C.ar    1  UNL1       -0.0002
     24 C          61.6184   91.1296    7.9757 C.ar    1  UNL1        0.0016
     25 C          60.5851   90.1232    7.5640 C.ar    1  UNL1        0.0214
     26 C          59.7413   89.9983    6.3302 C.ar    1  UNL1        0.0722
     27 C          58.8806   88.7788    6.4787 C.ar    1  UNL1        0.0805
     28 N          59.1925   88.1501    7.8043 N.ar    1  UNL1       -0.3241
     29 C          58.5618   86.9084    8.3613 C.3     1  UNL1        0.1305
     30 C          60.2459   88.9809    8.4751 C.ar    1  UNL1        0.0577
     31 C          59.7556   90.9295    5.1542 C.2     1  UNL1        0.2510
     32 O          58.4685   91.4896    4.6254 O.2     1  UNL1       -0.2698
     33 N          61.0570   91.3006    4.5072 N.am    1  UNL1       -0.2791
     34 H          61.9017   90.9330    4.8544 H       1  UNL1        0.1552
     35 C          61.0714   92.2318    3.3314 C.ar    1  UNL1        0.0702
     36 C          62.2907   92.3238    2.4626 C.ar    1  UNL1        0.0211
     37 C          62.3052   93.2549    1.2867 C.ar    1  UNL1        0.0590
     38 C          61.1004   94.0940    0.9796 C.ar    1  UNL1        0.2251
     39 N          59.8811   94.0020    1.8483 N.ar    1  UNL1       -0.2088
     40 C          59.8666   93.0708    3.0243 C.ar    1  UNL1        0.1167
     41 O          61.1148   95.0251   -0.1963 O.3     1  UNL1       -0.4561
     42 C          62.2954   95.0468   -1.1214 C.3     1  UNL1        0.2542
     43 C          63.9318   88.3464   14.6447 C.3     1  UNL1        0.0556
     44 C          64.5179   89.6715   14.2567 C.ar    1  UNL1       -0.0198
     45 C          64.1913   90.2743   12.9226 C.ar    1  UNL1       -0.0011
     46 C          64.7775   91.5994   12.5346 C.ar    1  UNL1        0.0363
     47 C          65.6902   92.3217   13.4807 C.ar    1  UNL1        0.1337
     48 O          66.2763   93.6468   13.0927 O.3     1  UNL1       -0.5055
     49 C          66.0168   91.7189   14.8149 C.ar    1  UNL1        0.0363
     50 C          65.4307   90.3938   15.2029 C.ar    1  UNL1       -0.0011
     51 H          66.0723   94.0233   12.2593 H       1  UNL1        0.2922
     52 C          62.6923   80.5247   10.1132 C.3     1  UNL1        0.1177
     53 C          63.0813   79.0790   10.0201 C.ar    1  UNL1       -0.0025
     54 C          62.5157   78.0860   10.9917 C.ar    1  UNL1       -0.0026
     55 C          62.9047   76.6404   10.8986 C.ar    1  UNL1       -0.0003
     56 C          63.8593   76.1876    9.8338 C.ar    1  UNL1       -0.0000
     57 C          64.4249   77.1806    8.8621 C.ar    1  UNL1       -0.0003
     58 C          64.0359   78.6263    8.9552 C.ar    1  UNL1       -0.0026
@<TRIPOS>BOND
     1    18    19    2
     2    19    17    1
     3    17     1    1
     4     1     2    1
     5     2     3    1
     6     3     4    2
     7     3     5   am
     8     5     6    1
     9     6     7    1
    10     7     8    1
    11     8    20    1
    12    20    21    1
    13    21    22   ar
    14    22    23   ar
    15    23    24   ar
    16    24    25   ar
    17    25    26   ar
    18    26    31    1
    19    31    32    2
    20    31    33   am
    21    33    35    1
    22    35    36   ar
    23    36    37   ar
    24    37    38   ar
    25    38    41    1
    26    41    42    1
    27    38    39   ar
    28    39    40   ar
    29    26    27   ar
    30    27    28   ar
    31    28    29    1
    32    28    30   ar
    33     8     9   am
    34     9    10    2
    35     9    11    1
    36    11    43    1
    37    43    44    1
    38    44    45   ar
    39    45    46   ar
    40    46    47   ar
    41    47    48    1
    42    47    49   ar
    43    49    50   ar
    44     6    12    1
    45    12    13   am
    46    13    14    2
    47    13    15   am
    48    15    52    1
    49    52    53    1
    50    53    54   ar
    51    54    55   ar
    52    55    56   ar
    53    56    57   ar
    54    57    58   ar
    55    12     1    1
    56    58    53   ar
    57    11     5    1
    58    50    44   ar
    59    30    21   ar
    60    30    25   ar
    61    40    35   ar
    62    33    34    1
    63    48    51    1
    64    15    16    1
@<TRIPOS>MOLECULE
*****
 58 64 0 0 0
SMALL
GASTEIGER

@<TRIPOS>ATOM
      1 N          63.5125   90.8152   10.5440 N.3     1  UNL1       -0.1862
      2 C          64.2991   92.0822   10.7051 C.3     1  UNL1        0.1775
      3 C          64.7878   92.4942   12.0621 C.2     1  UNL1        0.2452
      4 O          65.5744   93.7613   12.2231 O.2     1  UNL1       -0.2732
      5 N          64.4899   91.6392   13.2580 N.am    1  UNL1       -0.2541
      6 C          63.7033   90.3722   13.0969 C.3     1  UNL1        0.1908
      7 C          63.4054   89.5172   14.2929 C.3     1  UNL1        0.1359
      8 N          63.8941   89.9292   15.6498 N.am    1  UNL1       -0.2705
      9 C          64.6807   91.1963   15.8109 C.2     1  UNL1        0.2445
     10 O          65.1694   91.6083   17.1679 O.2     1  UNL1       -0.2731
     11 C          64.9786   92.0513   14.6150 C.3     1  UNL1        0.1577
     12 N          63.2147   89.9602   11.7399 N.am    1  UNL1       -0.1863
     13 C          62.4281   88.6931   11.5789 C.2     1  UNL1        0.3191
     14 O          62.1302   87.8382   12.7748 O.2     1  UNL1       -0.2512
     15 N          61.9394   88.2811   10.2219 N.am    1  UNL1       -0.2836
     16 H          62.1349   88.8423    9.4370 H       1  UNL1        0.1513
     17 C          63.0238   90.4032    9.1870 C.3     1  UNL1        0.1188
     18 C          60.5399   90.6106    9.9197 C.2     1  UNL1       -0.0034
     19 C          61.5737   90.5541    8.8344 C.2     1  UNL1       -0.0071
     20 C          63.5963   89.0742   16.8457 C.3     1  UNL1        0.1217
     21 C          63.0327   87.6964   16.6611 C.ar    1  UNL1        0.0135
     22 C          61.8305   87.2661   17.4482 C.ar    1  UNL1       -0.0012
     23 C          61.2670   85.8883   17.2636 C.ar    1  UNL1       -0.0002
     24 C          61.9056   84.9408   16.2918 C.ar    1  UNL1        0.0016
     25 C          63.1078   85.3711   15.5046 C.ar    1  UNL1        0.0214
     26 C          63.9445   84.6614   14.4818 C.ar    1  UNL1        0.0722
     27 C          65.0251   85.6005   14.0343 C.ar    1  UNL1        0.0805
     28 N          64.8563   86.8906   14.7805 N.ar    1  UNL1       -0.3241
     29 C          65.7207   88.1087   14.6424 C.3     1  UNL1        0.1305
     30 C          63.6714   86.7489   15.6893 C.ar    1  UNL1        0.0577
     31 C          63.7369   83.2587   13.9923 C.2     1  UNL1        0.2510
     32 O          63.9584   82.1004   14.9193 O.2     1  UNL1       -0.2698
     33 N          63.3079   83.0143   12.5759 N.am    1  UNL1       -0.2791
     34 H          63.1625   83.7746   11.9675 H       1  UNL1        0.1552
     35 C          63.1003   81.6118   12.0864 C.ar    1  UNL1        0.0702
     36 C          63.2939   81.2878   10.6347 C.ar    1  UNL1        0.0211
     37 C          63.0863   79.8852   10.1451 C.ar    1  UNL1        0.0590
     38 C          62.6852   78.8066   11.1073 C.ar    1  UNL1        0.2251
     39 N          62.4916   79.1306   12.5590 N.ar    1  UNL1       -0.2088
     40 C          62.6992   80.5332   13.0486 C.ar    1  UNL1        0.1167
     41 O          62.4776   77.4041   10.6178 O.3     1  UNL1       -0.4561
     42 C          63.6292   76.6308   10.0469 C.3     1  UNL1        0.2542
     43 C          65.7651   93.3183   14.7761 C.3     1  UNL1        0.0556
     44 C          67.1327   93.2790   15.3911 C.ar    1  UNL1       -0.0198
     45 C          67.7048   91.9759   15.8651 C.ar    1  UNL1       -0.0011
     46 C          69.0723   91.9367   16.4801 C.ar    1  UNL1        0.0363
     47 C          69.8678   93.2005   16.6211 C.ar    1  UNL1        0.1337
     48 O          71.2354   93.1613   17.2361 O.3     1  UNL1       -0.5055
     49 C          69.2958   94.5037   16.1471 C.ar    1  UNL1        0.0363
     50 C          67.9282   94.5429   15.5321 C.ar    1  UNL1       -0.0011
     51 H          71.5927   92.3473   17.5322 H       1  UNL1        0.2922
     52 C          61.1528   87.0141   10.0608 C.3     1  UNL1        0.1177
     53 C          61.3448   86.1621    8.8413 C.ar    1  UNL1       -0.0025
     54 C          60.2056   85.9477    7.8893 C.ar    1  UNL1       -0.0026
     55 C          60.3976   85.0957    6.6698 C.ar    1  UNL1       -0.0003
     56 C          61.7287   84.4580    6.4023 C.ar    1  UNL1       -0.0000
     57 C          62.8679   84.6724    7.3543 C.ar    1  UNL1       -0.0003
     58 C          62.6759   85.5244    8.5738 C.ar    1  UNL1       -0.0026
@<TRIPOS>BOND
     1    18    19    2
     2    19    17    1
     3    17     1    1
     4     1     2    1
     5     2     3    1
     6     3     4    2
     7     3     5   am
     8     5     6    1
     9     6     7    1
    10     7     8    1
    11     8    20    1
    12    20    21    1
    13    21    22   ar
    14    22    23   ar
    15    23    24   ar
    16    24    25   ar
    17    25    26   ar
    18    26    31    1
    19    31    32    2
    20    31    33   am
    21    33    35    1
    22    35    36   ar
    23    36    37   ar
    24    37    38   ar
    25    38    41    1
    26    41    42    1
    27    38    39   ar
    28    39    40   ar
    29    26    27   ar
    30    27    28   ar
    31    28    29    1
    32    28    30   ar
    33     8     9   am
    34     9    10    2
    35     9    11    1
    36    11    43    1
    37    43    44    1
    38    44    45   ar
    39    45    46   ar
    40    46    47   ar
    41    47    48    1
    42    47    49   ar
    43    49    50   ar
    44     6    12    1
    45    12    13   am
    46    13    14    2
    47    13    15   am
    48    15    52    1
    49    52    53    1
    50    53    54   ar
    51    54    55   ar
    52    55    56   ar
    53    56    57   ar
    54    57    58   ar
    55    12     1    1
    56    58    53   ar
    57    11     5    1
    58    50    44   ar
    59    30    21   ar
    60    30    25   ar
    61    40    35   ar
    62    33    34    1
    63    48    51    1
    64    15    16    1
@<TRIPOS>MOLECULE
*****
 58 64 0 0 0
SMALL
GASTEIGER

@<TRIPOS>ATOM
      1 N          63.3295   94.5687   -4.9632 N.3     1  UNL1       -0.1862
      2 C          62.5709   94.8692   -6.2218 C.3     1  UNL1        0.1775
      3 C          61.1570   95.3641   -6.1453 C.2     1  UNL1        0.2452
      4 O          60.3984   95.6646   -7.4041 O.2     1  UNL1       -0.2732
      5 N          60.5016   95.5585   -4.8102 N.am    1  UNL1       -0.2541
      6 C          61.2602   95.2580   -3.5515 C.3     1  UNL1        0.1908
      7 C          60.6048   95.4524   -2.2163 C.3     1  UNL1        0.1359
      8 N          59.1909   95.9472   -2.1398 N.am    1  UNL1       -0.2705
      9 C          58.4323   96.2477   -3.3985 C.2     1  UNL1        0.2445
     10 O          57.0183   96.7426   -3.3220 O.2     1  UNL1       -0.2731
     11 C          59.0877   96.0534   -4.7337 C.3     1  UNL1        0.1577
     12 N          62.6741   94.7631   -3.6280 N.am    1  UNL1       -0.1863
     13 C          63.4327   94.4626   -2.3693 C.2     1  UNL1        0.3191
     14 O          62.7773   94.6570   -1.0342 O.2     1  UNL1       -0.2512
     15 N          64.8466   93.9677   -2.4458 N.am    1  UNL1       -0.2836
     16 H          65.2768   93.8401   -3.3221 H       1  UNL1        0.1513
     17 C          64.7434   94.0738   -5.0397 C.3     1  UNL1        0.1188
     18 C          65.8299   95.4347   -6.9678 C.2     1  UNL1       -0.0034
     19 C          65.8294   94.9805   -5.5382 C.2     1  UNL1       -0.0071
     20 C          58.5355   96.1416   -0.8047 C.3     1  UNL1        0.1217
     21 C          59.2436   95.7164    0.4475 C.ar    1  UNL1        0.0135
     22 C          60.1941   96.6566    1.1277 C.ar    1  UNL1       -0.0012
     23 C          60.9022   96.2315    2.3798 C.ar    1  UNL1       -0.0002
     24 C          60.6599   94.8661    2.9516 C.ar    1  UNL1        0.0016
     25 C          59.7095   93.9259    2.2715 C.ar    1  UNL1        0.0214
     26 C          59.2733   92.5286    2.5989 C.ar    1  UNL1        0.0722
     27 C          58.2957   92.0902    1.5492 C.ar    1  UNL1        0.0805
     28 N          58.1276   93.2165    0.5730 N.ar    1  UNL1       -0.3241
     29 C          57.2413   93.2095   -0.6371 C.3     1  UNL1        0.1305
     30 C          59.0013   94.3511    1.0194 C.ar    1  UNL1        0.0577
     31 C          59.7341   91.7129    3.7705 C.2     1  UNL1        0.2510
     32 O          61.1977   91.4590    3.9784 O.2     1  UNL1       -0.2698
     33 N          58.7311   91.1511    4.7340 N.am    1  UNL1       -0.2791
     34 H          57.7704   91.3177    4.5975 H       1  UNL1        0.1552
     35 C          59.1917   90.3354    5.9055 C.ar    1  UNL1        0.0702
     36 C          60.1040   90.9426    6.9298 C.ar    1  UNL1        0.0211
     37 C          60.5646   90.1270    8.1013 C.ar    1  UNL1        0.0590
     38 C          60.1130   88.7042    8.2486 C.ar    1  UNL1        0.2251
     39 N          59.2008   88.0970    7.2244 N.ar    1  UNL1       -0.2088
     40 C          58.7401   88.9126    6.0528 C.ar    1  UNL1        0.1167
     41 O          60.5736   87.8885    9.4201 O.3     1  UNL1       -0.4561
     42 C          60.4570   88.4400   10.8102 C.3     1  UNL1        0.2542
     43 C          58.3291   96.3539   -5.9923 C.3     1  UNL1        0.0556
     44 C          57.1443   95.5160   -6.3721 C.ar    1  UNL1       -0.0198
     45 C          57.2528   94.0200   -6.3723 C.ar    1  UNL1       -0.0011
     46 C          56.0680   93.1821   -6.7520 C.ar    1  UNL1        0.0363
     47 C          54.7747   93.8403   -7.1317 C.ar    1  UNL1        0.1337
     48 O          53.5899   93.0024   -7.5115 O.3     1  UNL1       -0.5055
     49 C          54.6662   95.3364   -7.1316 C.ar    1  UNL1        0.0363
     50 C          55.8510   96.1743   -6.7518 C.ar    1  UNL1       -0.0011
     51 H          53.6576   92.0679   -7.5116 H       1  UNL1        0.2922
     52 C          65.6052   93.6672   -1.1872 C.3     1  UNL1        0.1177
     53 C          65.1761   94.2820    0.1120 C.ar    1  UNL1       -0.0025
     54 C          64.6495   93.4129    1.2153 C.ar    1  UNL1       -0.0026
     55 C          64.2204   94.0277    2.5145 C.ar    1  UNL1       -0.0003
     56 C          64.3180   95.5116    2.7104 C.ar    1  UNL1       -0.0000
     57 C          64.8447   96.3808    1.6071 C.ar    1  UNL1       -0.0003
     58 C          65.2738   95.7660    0.3079 C.ar    1  UNL1       -0.0026
@<TRIPOS>BOND
     1    18    19    2
     2    19    17    1
     3    17     1    1
     4     1     2    1
     5     2     3    1
     6     3     4    2
     7     3     5   am
     8     5     6    1
     9     6     7    1
    10     7     8    1
    11     8    20    1
    12    20    21    1
    13    21    22   ar
    14    22    23   ar
    15    23    24   ar
    16    24    25   ar
    17    25    26   ar
    18    26    31    1
    19    31    32    2
    20    31    33   am
    21    33    35    1
    22    35    36   ar
    23    36    37   ar
    24    37    38   ar
    25    38    41    1
    26    41    42    1
    27    38    39   ar
    28    39    40   ar
    29    26    27   ar
    30    27    28   ar
    31    28    29    1
    32    28    30   ar
    33     8     9   am
    34     9    10    2
    35     9    11    1
    36    11    43    1
    37    43    44    1
    38    44    45   ar
    39    45    46   ar
    40    46    47   ar
    41    47    48    1
    42    47    49   ar
    43    49    50   ar
    44     6    12    1
    45    12    13   am
    46    13    14    2
    47    13    15   am
    48    15    52    1
    49    52    53    1
    50    53    54   ar
    51    54    55   ar
    52    55    56   ar
    53    56    57   ar
    54    57    58   ar
    55    12     1    1
    56    58    53   ar
    57    11     5    1
    58    50    44   ar
    59    30    21   ar
    60    30    25   ar
    61    40    35   ar
    62    33    34    1
    63    48    51    1
    64    15    16    1
@<TRIPOS>MOLECULE
*****
 58 64 0 0 0
SMALL
GASTEIGER

@<TRIPOS>ATOM
      1 N          61.2723   85.6399    7.6344 N.3     1  UNL1       -0.1862
      2 C          62.2192   84.5464    8.0311 C.3     1  UNL1        0.1775
      3 C          62.7839   84.5107    9.4203 C.2     1  UNL1        0.2452
      4 O          63.7309   83.4171    9.8171 O.2     1  UNL1       -0.2732
      5 N          62.4017   85.5685   10.4127 N.am    1  UNL1       -0.2541
      6 C          61.4547   86.6620   10.0159 C.3     1  UNL1        0.1908
      7 C          61.0724   87.7199   11.0084 C.3     1  UNL1        0.1359
      8 N          61.6371   87.6842   12.3976 N.am    1  UNL1       -0.2705
      9 C          62.5841   86.5906   12.7943 C.2     1  UNL1        0.2445
     10 O          63.1488   86.5549   14.1835 O.2     1  UNL1       -0.2731
     11 C          62.9663   85.5328   11.8019 C.3     1  UNL1        0.1577
     12 N          60.8900   86.6977    8.6268 N.am    1  UNL1       -0.1863
     13 C          59.9430   87.7913    8.2300 C.2     1  UNL1        0.3191
     14 O          59.5607   88.8491    9.2224 O.2     1  UNL1       -0.2512
     15 N          59.3783   87.8270    6.8408 N.am    1  UNL1       -0.2836
     16 H          59.6292   87.1327    6.1895 H       1  UNL1        0.1513
     17 C          60.7076   85.6756    6.2452 C.3     1  UNL1        0.1188
     18 C          62.1806   84.1707    4.7235 C.2     1  UNL1       -0.0034
     19 C          60.8522   84.4839    5.3459 C.2     1  UNL1       -0.0071
     20 C          61.2548   88.7419   13.3900 C.3     1  UNL1        0.1217
     21 C          62.3186   89.4722   14.1550 C.ar    1  UNL1        0.0135
     22 C          62.3697   89.3714   15.6507 C.ar    1  UNL1       -0.0012
     23 C          63.4334   90.1016   16.4157 C.ar    1  UNL1       -0.0002
     24 C          64.4460   90.9327   15.6850 C.ar    1  UNL1        0.0016
     25 C          64.3948   91.0335   14.1892 C.ar    1  UNL1        0.0214
     26 C          65.2514   91.7709   13.2031 C.ar    1  UNL1        0.0722
     27 C          64.7171   91.4964   11.8286 C.ar    1  UNL1        0.0805
     28 N          63.5304   90.5894   11.9653 N.ar    1  UNL1       -0.3241
     29 C          62.6902   90.0611   10.8406 C.3     1  UNL1        0.1305
     30 C          63.3311   90.3033   13.4242 C.ar    1  UNL1        0.0577
     31 C          66.4347   92.6317   13.5335 C.2     1  UNL1        0.2510
     32 O          66.6063   93.9612   12.8603 O.2     1  UNL1       -0.2698
     33 N          67.4463   92.1630   14.5370 N.am    1  UNL1       -0.2791
     34 H          67.3337   91.2905   14.9787 H       1  UNL1        0.1552
     35 C          68.6295   93.0237   14.8673 C.ar    1  UNL1        0.0702
     36 C          68.5004   94.1169   15.8863 C.ar    1  UNL1        0.0211
     37 C          69.6836   94.9776   16.2168 C.ar    1  UNL1        0.0590
     38 C          70.9958   94.7452   15.5283 C.ar    1  UNL1        0.2251
     39 N          71.1248   93.6521   14.5093 N.ar    1  UNL1       -0.2088
     40 C          69.9417   92.7913   14.1788 C.ar    1  UNL1        0.1167
     41 O          72.1790   95.6059   15.8587 O.3     1  UNL1       -0.4561
     42 C          72.6251   96.6684   14.8983 C.3     1  UNL1        0.2542
     43 C          63.9133   84.4393   12.1987 C.3     1  UNL1        0.0556
     44 C          63.3794   83.1228   12.6800 C.ar    1  UNL1       -0.0198
     45 C          63.6865   81.8661   11.9208 C.ar    1  UNL1       -0.0011
     46 C          63.1526   80.5496   12.4021 C.ar    1  UNL1        0.0363
     47 C          62.3115   80.4897   13.6427 C.ar    1  UNL1        0.1337
     48 O          61.7776   79.1732   14.1240 O.3     1  UNL1       -0.5055
     49 C          62.0044   81.7464   14.4020 C.ar    1  UNL1        0.0363
     50 C          62.5383   83.0629   13.9207 C.ar    1  UNL1       -0.0011
     51 H          61.9695   78.3882   13.6497 H       1  UNL1        0.2922
     52 C          58.4314   88.9205    6.4440 C.3     1  UNL1        0.1177
     53 C          58.9341   90.1049    5.6729 C.ar    1  UNL1       -0.0025
     54 C          57.9668   91.1260    5.1518 C.ar    1  UNL1       -0.0026
     55 C          58.4696   92.3104    4.3807 C.ar    1  UNL1       -0.0003
     56 C          59.9395   92.4736    4.1308 C.ar    1  UNL1       -0.0000
     57 C          60.9069   91.4524    4.6519 C.ar    1  UNL1       -0.0003
     58 C          60.4041   90.2680    5.4230 C.ar    1  UNL1       -0.0026
@<TRIPOS>BOND
     1    18    19    2
     2    19    17    1
     3    17     1    1
     4     1     2    1
     5     2     3    1
     6     3     4    2
     7     3     5   am
     8     5     6    1
     9     6     7    1
    10     7     8    1
    11     8    20    1
    12    20    21    1
    13    21    22   ar
    14    22    23   ar
    15    23    24   ar
    16    24    25   ar
    17    25    26   ar
    18    26    31    1
    19    31    32    2
    20    31    33   am
    21    33    35    1
    22    35    36   ar
    23    36    37   ar
    24    37    38   ar
    25    38    41    1
    26    41    42    1
    27    38    39   ar
    28    39    40   ar
    29    26    27   ar
    30    27    28   ar
    31    28    29    1
    32    28    30   ar
    33     8     9   am
    34     9    10    2
    35     9    11    1
    36    11    43    1
    37    43    44    1
    38    44    45   ar
    39    45    46   ar
    40    46    47   ar
    41    47    48    1
    42    47    49   ar
    43    49    50   ar
    44     6    12    1
    45    12    13   am
    46    13    14    2
    47    13    15   am
    48    15    52    1
    49    52    53    1
    50    53    54   ar
    51    54    55   ar
    52    55    56   ar
    53    56    57   ar
    54    57    58   ar
    55    12     1    1
    56    58    53   ar
    57    11     5    1
    58    50    44   ar
    59    30    21   ar
    60    30    25   ar
    61    40    35   ar
    62    33    34    1
    63    48    51    1
    64    15    16    1
@<TRIPOS>MOLECULE
*****
 58 64 0 0 0
SMALL
GASTEIGER

@<TRIPOS>ATOM
      1 N          62.4834   89.8757    9.7899 N.3     1  UNL1       -0.1862
      2 C          62.9579   91.2976    9.7343 C.3     1  UNL1        0.1775
      3 C          63.7071   91.8841   10.8939 C.2     1  UNL1        0.2452
      4 O          64.1816   93.3060   10.8382 O.2     1  UNL1       -0.2732
      5 N          63.9819   91.0487   12.1090 N.am    1  UNL1       -0.2541
      6 C          63.5074   89.6269   12.1646 C.3     1  UNL1        0.1908
      7 C          63.7821   88.7915   13.3798 C.3     1  UNL1        0.1359
      8 N          64.5313   89.3780   14.5394 N.am    1  UNL1       -0.2705
      9 C          65.0058   90.7999   14.4838 C.2     1  UNL1        0.2445
     10 O          65.7551   91.3864   15.6434 O.2     1  UNL1       -0.2731
     11 C          64.7311   91.6352   13.2686 C.3     1  UNL1        0.1577
     12 N          62.7581   89.0404   11.0050 N.am    1  UNL1       -0.1863
     13 C          62.2836   87.6184   11.0607 C.2     1  UNL1        0.3191
     14 O          62.5583   86.7831   12.2758 O.2     1  UNL1       -0.2512
     15 N          61.5344   87.0319    9.9011 N.am    1  UNL1       -0.2836
     16 H          61.3541   87.5802    9.1035 H       1  UNL1        0.1513
     17 C          61.7341   89.2892    8.6303 C.3     1  UNL1        0.1188
     18 C          59.4856   88.7944    7.4265 C.2     1  UNL1       -0.0034
     19 C          60.2466   89.4571    8.5364 C.2     1  UNL1       -0.0071
     20 C          64.8061   88.5426   15.7546 C.3     1  UNL1        0.1217
     21 C          63.8881   87.4107   16.1098 C.ar    1  UNL1        0.0135
     22 C          62.8667   87.5855   17.1944 C.ar    1  UNL1       -0.0012
     23 C          61.9488   86.4536   17.5496 C.ar    1  UNL1       -0.0002
     24 C          62.0522   85.1470   16.8203 C.ar    1  UNL1        0.0016
     25 C          63.0736   84.9722   15.7358 C.ar    1  UNL1        0.0214
     26 C          63.4075   83.8090   14.8495 C.ar    1  UNL1        0.0722
     27 C          64.5319   84.2219   13.9466 C.ar    1  UNL1        0.0805
     28 N          64.8928   85.6403   14.2747 N.ar    1  UNL1       -0.3241
     29 C          65.9664   86.4525   13.6133 C.3     1  UNL1        0.1305
     30 C          63.9915   86.1040   15.3805 C.ar    1  UNL1        0.0577
     31 C          62.7351   82.4681   14.8638 C.2     1  UNL1        0.2510
     32 O          63.4395   81.2821   15.4532 O.2     1  UNL1       -0.2698
     33 N          61.3585   82.3133   14.2886 N.am    1  UNL1       -0.2791
     34 H          60.8963   83.0917   13.9018 H       1  UNL1        0.1552
     35 C          60.6861   80.9725   14.3028 C.ar    1  UNL1        0.0702
     36 C          59.2168   80.8734   14.5883 C.ar    1  UNL1        0.0211
     37 C          58.5443   79.5327   14.6025 C.ar    1  UNL1        0.0590
     38 C          59.3411   78.2911   14.3313 C.ar    1  UNL1        0.2251
     39 N          60.8104   78.3902   14.0459 N.ar    1  UNL1       -0.2088
     40 C          61.4829   79.7309   14.0316 C.ar    1  UNL1        0.1167
     41 O          58.6687   76.9504   14.3455 O.3     1  UNL1       -0.4561
     42 C          58.6387   76.1397   15.6073 C.3     1  UNL1        0.2542
     43 C          65.2056   93.0571   13.2130 C.3     1  UNL1        0.0556
     44 C          66.0605   93.5183   12.0701 C.ar    1  UNL1       -0.0198
     45 C          66.9165   92.5345   11.3290 C.ar    1  UNL1       -0.0011
     46 C          67.7714   92.9957   10.1860 C.ar    1  UNL1        0.0363
     47 C          67.7703   94.4408    9.7841 C.ar    1  UNL1        0.1337
     48 O          68.6251   94.9021    8.6411 O.3     1  UNL1       -0.5055
     49 C          66.9142   95.4248   10.5251 C.ar    1  UNL1        0.0363
     50 C          66.0593   94.9635   11.6681 C.ar    1  UNL1       -0.0011
     51 H          69.1599   94.2875    8.1782 H       1  UNL1        0.2922
     52 C          61.0599   85.6101    9.9566 C.3     1  UNL1        0.1177
     53 C          62.0474   84.4966   10.1435 C.ar    1  UNL1       -0.0025
     54 C          63.2856   84.4426    9.2986 C.ar    1  UNL1       -0.0026
     55 C          64.2731   83.3291    9.4855 C.ar    1  UNL1       -0.0003
     56 C          64.0225   82.2696   10.5172 C.ar    1  UNL1       -0.0000
     57 C          62.7843   82.3236   11.3622 C.ar    1  UNL1       -0.0003
     58 C          61.7967   83.4371   11.1754 C.ar    1  UNL1       -0.0026
@<TRIPOS>BOND
     1    18    19    2
     2    19    17    1
     3    17     1    1
     4     1     2    1
     5     2     3    1
     6     3     4    2
     7     3     5   am
     8     5     6    1
     9     6     7    1
    10     7     8    1
    11     8    20    1
    12    20    21    1
    13    21    22   ar
    14    22    23   ar
    15    23    24   ar
    16    24    25   ar
    17    25    26   ar
    18    26    31    1
    19    31    32    2
    20    31    33   am
    21    33    35    1
    22    35    36   ar
    23    36    37   ar
    24    37    38   ar
    25    38    41    1
    26    41    42    1
    27    38    39   ar
    28    39    40   ar
    29    26    27   ar
    30    27    28   ar
    31    28    29    1
    32    28    30   ar
    33     8     9   am
    34     9    10    2
    35     9    11    1
    36    11    43    1
    37    43    44    1
    38    44    45   ar
    39    45    46   ar
    40    46    47   ar
    41    47    48    1
    42    47    49   ar
    43    49    50   ar
    44     6    12    1
    45    12    13   am
    46    13    14    2
    47    13    15   am
    48    15    52    1
    49    52    53    1
    50    53    54   ar
    51    54    55   ar
    52    55    56   ar
    53    56    57   ar
    54    57    58   ar
    55    12     1    1
    56    58    53   ar
    57    11     5    1
    58    50    44   ar
    59    30    21   ar
    60    30    25   ar
    61    40    35   ar
    62    33    34    1
    63    48    51    1
    64    15    16    1
@<TRIPOS>MOLECULE
*****
 58 64 0 0 0
SMALL
GASTEIGER

@<TRIPOS>ATOM
      1 N          64.9833   85.2994   14.1099 N.3     1  UNL1       -0.1862
      2 C          65.4210   86.6362   14.6307 C.3     1  UNL1        0.1775
      3 C          64.6383   87.8685   14.2857 C.2     1  UNL1        0.2452
      4 O          65.0762   89.2053   14.8066 O.2     1  UNL1       -0.2732
      5 N          63.4179   87.7639   13.4200 N.am    1  UNL1       -0.2541
      6 C          62.9801   86.4271   12.8992 C.3     1  UNL1        0.1908
      7 C          61.7596   86.3225   12.0334 C.3     1  UNL1        0.1359
      8 N          60.9770   87.5547   11.6884 N.am    1  UNL1       -0.2705
      9 C          61.4148   88.8916   12.2093 C.2     1  UNL1        0.2445
     10 O          60.6321   90.1238   11.8643 O.2     1  UNL1       -0.2731
     11 C          62.6352   88.9961   13.0750 C.3     1  UNL1        0.1577
     12 N          63.7628   85.1949   13.2441 N.am    1  UNL1       -0.1863
     13 C          63.3250   83.8580   12.7233 C.2     1  UNL1        0.3191
     14 O          62.1046   83.7534   11.8576 O.2     1  UNL1       -0.2512
     15 N          64.1077   82.6258   13.0682 N.am    1  UNL1       -0.2836
     16 H          64.9087   82.6944   13.6365 H       1  UNL1        0.1513
     17 C          65.7659   84.0672   14.4548 C.3     1  UNL1        0.1188
     18 C          63.9113   83.3576   16.1302 C.2     1  UNL1       -0.0034
     19 C          65.2381   83.1052   15.4776 C.2     1  UNL1       -0.0071
     20 C          59.7565   87.4502   10.8227 C.3     1  UNL1        0.1217
     21 C          59.8881   87.5157    9.3299 C.ar    1  UNL1        0.0135
     22 C          60.1460   86.2643    8.5441 C.ar    1  UNL1       -0.0012
     23 C          60.2775   86.3298    7.0513 C.ar    1  UNL1       -0.0002
     24 C          60.1512   87.6467    6.3444 C.ar    1  UNL1        0.0016
     25 C          59.8932   88.8980    7.1302 C.ar    1  UNL1        0.0214
     26 C          59.7228   90.3285    6.7122 C.ar    1  UNL1        0.0722
     27 C          59.4860   91.1471    7.9466 C.ar    1  UNL1        0.0805
     28 N          59.5100   90.2226    9.1274 N.ar    1  UNL1       -0.3241
     29 C          59.3164   90.6185   10.5612 C.3     1  UNL1        0.1305
     30 C          59.7617   88.8326    8.6229 C.ar    1  UNL1        0.0577
     31 C          59.7794   90.8490    5.3064 C.2     1  UNL1        0.2510
     32 O          58.5752   90.7428    4.4183 O.2     1  UNL1       -0.2698
     33 N          61.0401   91.4757    4.7888 N.am    1  UNL1       -0.2791
     34 H          61.8304   91.5454    5.3717 H       1  UNL1        0.1552
     35 C          61.0967   91.9962    3.3832 C.ar    1  UNL1        0.0702
     36 C          62.3485   91.8331    2.5730 C.ar    1  UNL1        0.0211
     37 C          62.4052   92.3536    1.1673 C.ar    1  UNL1        0.0590
     38 C          61.2101   93.0371    0.5719 C.ar    1  UNL1        0.2251
     39 N          59.9583   93.2002    1.3821 N.ar    1  UNL1       -0.2088
     40 C          59.9016   92.6797    2.7878 C.ar    1  UNL1        0.1167
     41 O          61.2667   93.5576   -0.8337 O.3     1  UNL1       -0.4561
     42 C          60.0249   94.0864   -1.4883 C.3     1  UNL1        0.2542
     43 C          63.0730   90.3330   13.5958 C.3     1  UNL1        0.0556
     44 C          63.9668   91.2054   12.7652 C.ar    1  UNL1       -0.0198
     45 C          65.0589   91.9988   13.4193 C.ar    1  UNL1       -0.0011
     46 C          65.9527   92.8713   12.5887 C.ar    1  UNL1        0.0363
     47 C          65.7545   92.9503   11.1040 C.ar    1  UNL1        0.1337
     48 O          66.6483   93.8228   10.2734 O.3     1  UNL1       -0.5055
     49 C          64.6624   92.1569   10.4498 C.ar    1  UNL1        0.0363
     50 C          63.7685   91.2844   11.2804 C.ar    1  UNL1       -0.0011
     51 H          67.3305   94.3184   10.6820 H       1  UNL1        0.2922
     52 C          63.6699   81.2889   12.5475 C.3     1  UNL1        0.1177
     53 C          62.4569   80.6203   13.1232 C.ar    1  UNL1       -0.0025
     54 C          61.3080   81.4481   13.6179 C.ar    1  UNL1       -0.0026
     55 C          60.0950   80.7795   14.1937 C.ar    1  UNL1       -0.0003
     56 C          60.0308   79.2830   14.2747 C.ar    1  UNL1       -0.0000
     57 C          61.1797   78.4552   13.7799 C.ar    1  UNL1       -0.0003
     58 C          62.3928   79.1238   13.2042 C.ar    1  UNL1       -0.0026
@<TRIPOS>BOND
     1    18    19    2
     2    19    17    1
     3    17     1    1
     4     1     2    1
     5     2     3    1
     6     3     4    2
     7     3     5   am
     8     5     6    1
     9     6     7    1
    10     7     8    1
    11     8    20    1
    12    20    21    1
    13    21    22   ar
    14    22    23   ar
    15    23    24   ar
    16    24    25   ar
    17    25    26   ar
    18    26    31    1
    19    31    32    2
    20    31    33   am
    21    33    35    1
    22    35    36   ar
    23    36    37   ar
    24    37    38   ar
    25    38    41    1
    26    41    42    1
    27    38    39   ar
    28    39    40   ar
    29    26    27   ar
    30    27    28   ar
    31    28    29    1
    32    28    30   ar
    33     8     9   am
    34     9    10    2
    35     9    11    1
    36    11    43    1
    37    43    44    1
    38    44    45   ar
    39    45    46   ar
    40    46    47   ar
    41    47    48    1
    42    47    49   ar
    43    49    50   ar
    44     6    12    1
    45    12    13   am
    46    13    14    2
    47    13    15   am
    48    15    52    1
    49    52    53    1
    50    53    54   ar
    51    54    55   ar
    52    55    56   ar
    53    56    57   ar
    54    57    58   ar
    55    12     1    1
    56    58    53   ar
    57    11     5    1
    58    50    44   ar
    59    30    21   ar
    60    30    25   ar
    61    40    35   ar
    62    33    34    1
    63    48    51    1
    64    15    16    1
@<TRIPOS>MOLECULE
*****
 58 64 0 0 0
SMALL
GASTEIGER

@<TRIPOS>ATOM
      1 N          62.1833   90.0757   10.1398 N.3     1  UNL1       -0.1862
      2 C          62.6539   91.4398   10.5493 C.3     1  UNL1        0.1775
      3 C          63.3042   91.6388   11.8862 C.2     1  UNL1        0.2452
      4 O          63.7748   93.0030   12.2957 O.2     1  UNL1       -0.2732
      5 N          63.4839   90.4737   12.8137 N.am    1  UNL1       -0.2541
      6 C          63.0133   89.1096   12.4042 C.3     1  UNL1        0.1908
      7 C          63.1931   87.9445   13.3317 C.3     1  UNL1        0.1359
      8 N          63.8434   88.1435   14.6686 N.am    1  UNL1       -0.2705
      9 C          64.3140   89.5077   15.0781 C.2     1  UNL1        0.2445
     10 O          64.9644   89.7067   16.4151 O.2     1  UNL1       -0.2731
     11 C          64.1343   90.6728   14.1506 C.3     1  UNL1        0.1577
     12 N          62.3630   88.9106   11.0672 N.am    1  UNL1       -0.1863
     13 C          61.8924   87.5464   10.6578 C.2     1  UNL1        0.3191
     14 O          62.0721   86.3814   11.5852 O.2     1  UNL1       -0.2512
     15 N          61.2421   87.3474    9.3208 N.am    1  UNL1       -0.2836
     16 H          61.1241   88.1121    8.7121 H       1  UNL1        0.1513
     17 C          61.5329   89.8767    8.8028 C.3     1  UNL1        0.1188
     18 C          59.4092   89.3116    7.4170 C.2     1  UNL1       -0.0034
     19 C          60.0419   89.7445    8.7063 C.2     1  UNL1       -0.0071
     20 C          64.0231   86.9784   15.5961 C.3     1  UNL1        0.1217
     21 C          64.5587   85.6787   15.0726 C.ar    1  UNL1        0.0135
     22 C          66.0398   85.4527   14.9997 C.ar    1  UNL1       -0.0012
     23 C          66.5753   84.1530   14.4763 C.ar    1  UNL1       -0.0002
     24 C          65.6297   83.0794   14.0257 C.ar    1  UNL1        0.0016
     25 C          64.1487   83.3053   14.0985 C.ar    1  UNL1        0.0214
     26 C          62.9817   82.4382   13.7294 C.ar    1  UNL1        0.0722
     27 C          61.7249   83.2020   14.0247 C.ar    1  UNL1        0.0805
     28 N          62.1152   84.5411   14.5763 N.ar    1  UNL1       -0.3241
     29 C          61.1729   85.6259   15.0068 C.3     1  UNL1        0.1305
     30 C          63.6131   84.6050   14.6220 C.ar    1  UNL1        0.0577
     31 C          63.0581   81.0508   13.1641 C.2     1  UNL1        0.2510
     32 O          63.2417   79.8770   14.0797 O.2     1  UNL1       -0.2698
     33 N          62.9509   80.8374   11.6832 N.am    1  UNL1       -0.2791
     34 H          62.8305   81.6078   11.0823 H       1  UNL1        0.1552
     35 C          63.0273   79.4501   11.1179 C.ar    1  UNL1        0.0702
     36 C          63.4233   79.2447    9.6858 C.ar    1  UNL1        0.0211
     37 C          63.4997   77.8574    9.1204 C.ar    1  UNL1        0.0590
     38 C          63.1802   76.6756    9.9871 C.ar    1  UNL1        0.2251
     39 N          62.7842   76.8811   11.4193 N.ar    1  UNL1       -0.2088
     40 C          62.7078   78.2683   11.9847 C.ar    1  UNL1        0.1167
     41 O          63.2565   75.2884    9.4218 O.3     1  UNL1       -0.4561
     42 C          64.2587   74.9684    8.3525 C.3     1  UNL1        0.2542
     43 C          64.6049   92.0368   14.5601 C.3     1  UNL1        0.0556
     44 C          66.0736   92.3250   14.6596 C.ar    1  UNL1       -0.0198
     45 C          66.9664   92.0865   13.4781 C.ar    1  UNL1       -0.0011
     46 C          68.4351   92.3747   13.5775 C.ar    1  UNL1        0.0363
     47 C          69.0110   92.9014   14.8585 C.ar    1  UNL1        0.1337
     48 O          70.4797   93.1896   14.9579 O.3     1  UNL1       -0.5055
     49 C          68.1182   93.1400   16.0400 C.ar    1  UNL1        0.0363
     50 C          66.6495   92.8518   15.9406 C.ar    1  UNL1       -0.0011
     51 H          71.0374   93.0406   14.2199 H       1  UNL1        0.2922
     52 C          60.7715   85.9833    8.9113 C.3     1  UNL1        0.1177
     53 C          61.3403   85.3300    7.6867 C.ar    1  UNL1       -0.0025
     54 C          62.8250   85.1742    7.5409 C.ar    1  UNL1       -0.0026
     55 C          63.3939   84.5208    6.3163 C.ar    1  UNL1       -0.0003
     56 C          62.4780   84.0233    5.2376 C.ar    1  UNL1       -0.0000
     57 C          60.9932   84.1791    5.3835 C.ar    1  UNL1       -0.0003
     58 C          60.4244   84.8324    6.6080 C.ar    1  UNL1       -0.0026
@<TRIPOS>BOND
     1    18    19    2
     2    19    17    1
     3    17     1    1
     4     1     2    1
     5     2     3    1
     6     3     4    2
     7     3     5   am
     8     5     6    1
     9     6     7    1
    10     7     8    1
    11     8    20    1
    12    20    21    1
    13    21    22   ar
    14    22    23   ar
    15    23    24   ar
    16    24    25   ar
    17    25    26   ar
    18    26    31    1
    19    31    32    2
    20    31    33   am
    21    33    35    1
    22    35    36   ar
    23    36    37   ar
    24    37    38   ar
    25    38    41    1
    26    41    42    1
    27    38    39   ar
    28    39    40   ar
    29    26    27   ar
    30    27    28   ar
    31    28    29    1
    32    28    30   ar
    33     8     9   am
    34     9    10    2
    35     9    11    1
    36    11    43    1
    37    43    44    1
    38    44    45   ar
    39    45    46   ar
    40    46    47   ar
    41    47    48    1
    42    47    49   ar
    43    49    50   ar
    44     6    12    1
    45    12    13   am
    46    13    14    2
    47    13    15   am
    48    15    52    1
    49    52    53    1
    50    53    54   ar
    51    54    55   ar
    52    55    56   ar
    53    56    57   ar
    54    57    58   ar
    55    12     1    1
    56    58    53   ar
    57    11     5    1
    58    50    44   ar
    59    30    21   ar
    60    30    25   ar
    61    40    35   ar
    62    33    34    1
    63    48    51    1
    64    15    16    1
