@<TRIPOS>MOLECULE
*****
 25 28 0 0 0
SMALL
GASTEIGER

@<TRIPOS>ATOM
      1 C          62.8357   88.9270   11.9241 C.ar    1  UNL1       -0.0000
      2 C          62.7726   90.4257   11.9137 C.ar    1  UNL1       -0.0003
      3 C          63.4030   91.2106   13.0257 C.ar    1  UNL1       -0.0039
      4 C          64.0965   90.4968   14.1481 C.ar    1  UNL1       -0.0178
      5 C          64.1595   88.9982   14.1584 C.ar    1  UNL1       -0.0039
      6 C          63.5291   88.2133   13.0464 C.ar    1  UNL1       -0.0003
      7 O          60.4919   83.9891    5.6095 O.3     1  UNL1       -0.5055
      8 C          61.1223   84.7740    6.7215 C.ar    1  UNL1        0.1337
      9 C          62.5610   84.5453    7.0790 C.ar    1  UNL1        0.0366
     10 C          63.1914   85.3302    8.1910 C.ar    1  UNL1        0.0031
     11 C          62.3831   86.3437    8.9455 C.ar    1  UNL1        0.0002
     12 C          63.0135   87.1286   10.0575 C.ar    1  UNL1        0.0000
     13 C          62.2053   88.1422   10.8121 C.ar    1  UNL1       -0.0000
     14 C          60.7665   88.3709   10.4546 C.ar    1  UNL1        0.0000
     15 C          60.1361   87.5860    9.3426 C.ar    1  UNL1        0.0001
     16 C          60.9444   86.5724    8.5881 C.ar    1  UNL1        0.0030
     17 C          60.3140   85.7875    7.4760 C.ar    1  UNL1        0.0366
     18 H          60.9968   83.3560    5.1382 H       1  UNL1        0.2922
     19 C          64.7269   91.2816   15.2601 C.3     1  UNL1        0.0527
     20 C          66.1080   91.8426   15.0928 C.ar    1  UNL1       -0.0147
     21 C          66.6831   92.7456   16.1435 C.ar    1  UNL1        0.0167
     22 C          68.0642   93.3066   15.9762 C.ar    1  UNL1        0.0986
     23 N          68.8702   92.9645   14.7583 N.ar    1  UNL1       -0.2423
     24 C          68.2951   92.0614   13.7077 C.ar    1  UNL1        0.0986
     25 C          66.9141   91.5005   13.8749 C.ar    1  UNL1        0.0167
@<TRIPOS>BOND
     1     7     8    1
     2     8     9   ar
     3     9    10   ar
     4    10    11   ar
     5    11    12   ar
     6    12    13   ar
     7    13     1    1
     8     1     2   ar
     9     2     3   ar
    10     3     4   ar
    11     4    19    1
    12    19    20    1
    13    20    21   ar
    14    21    22   ar
    15    22    23   ar
    16    23    24   ar
    17    24    25   ar
    18     4     5   ar
    19     5     6   ar
    20    13    14   ar
    21    14    15   ar
    22    15    16   ar
    23    16    17   ar
    24    17     8   ar
    25    16    11   ar
    26     6     1   ar
    27    25    20   ar
    28     7    18    1
@<TRIPOS>MOLECULE
*****
 25 28 0 0 0
SMALL
GASTEIGER

@<TRIPOS>ATOM
      1 C          64.3013   88.9618   13.8175 C.ar    1  UNL1       -0.0000
      2 C          65.3084   89.7282   14.6228 C.ar    1  UNL1       -0.0003
      3 C          65.6688   91.1313   14.2338 C.ar    1  UNL1       -0.0039
      4 C          65.0221   91.7681   13.0395 C.ar    1  UNL1       -0.0178
      5 C          64.0150   91.0017   12.2342 C.ar    1  UNL1       -0.0039
      6 C          63.6546   89.5986   12.6233 C.ar    1  UNL1       -0.0003
      7 O          62.1619   80.9378   14.7047 O.3     1  UNL1       -0.5055
      8 C          62.5224   82.3409   14.3157 C.ar    1  UNL1        0.1337
      9 C          62.5456   82.7355   12.8688 C.ar    1  UNL1        0.0366
     10 C          62.9060   84.1386   12.4798 C.ar    1  UNL1        0.0031
     11 C          63.2432   85.1471   13.5377 C.ar    1  UNL1        0.0002
     12 C          63.6036   86.5502   13.1486 C.ar    1  UNL1        0.0000
     13 C          63.9408   87.5587   14.2065 C.ar    1  UNL1       -0.0000
     14 C          63.9176   87.1641   15.6536 C.ar    1  UNL1        0.0000
     15 C          63.5572   85.7610   16.0426 C.ar    1  UNL1        0.0001
     16 C          63.2200   84.7525   14.9846 C.ar    1  UNL1        0.0030
     17 C          62.8595   83.3494   15.3736 C.ar    1  UNL1        0.0366
     18 H          61.9513   80.3078   14.0439 H       1  UNL1        0.2922
     19 C          65.3825   93.1712   12.6504 C.3     1  UNL1        0.0527
     20 C          66.3411   93.4140   11.5225 C.ar    1  UNL1       -0.0147
     21 C          66.4058   94.7633   10.8705 C.ar    1  UNL1        0.0167
     22 C          67.3644   95.0061    9.7425 C.ar    1  UNL1        0.0986
     23 N          68.2582   93.8996    9.2666 N.ar    1  UNL1       -0.2423
     24 C          68.1935   92.5502    9.9186 C.ar    1  UNL1        0.0986
     25 C          67.2350   92.3074   11.0465 C.ar    1  UNL1        0.0167
@<TRIPOS>BOND
     1     7     8    1
     2     8     9   ar
     3     9    10   ar
     4    10    11   ar
     5    11    12   ar
     6    12    13   ar
     7    13     1    1
     8     1     2   ar
     9     2     3   ar
    10     3     4   ar
    11     4    19    1
    12    19    20    1
    13    20    21   ar
    14    21    22   ar
    15    22    23   ar
    16    23    24   ar
    17    24    25   ar
    18     4     5   ar
    19     5     6   ar
    20    13    14   ar
    21    14    15   ar
    22    15    16   ar
    23    16    17   ar
    24    17     8   ar
    25    16    11   ar
    26     6     1   ar
    27    25    20   ar
    28     7    18    1
@<TRIPOS>MOLECULE
*****
 25 28 0 0 0
SMALL
GASTEIGER

@<TRIPOS>ATOM
      1 C          63.6499   87.3899   13.2453 C.ar    1  UNL1       -0.0000
      2 C          64.3513   87.6545   14.5445 C.ar    1  UNL1       -0.0003
      3 C          64.6493   89.0639   14.9626 C.ar    1  UNL1       -0.0039
      4 C          64.2458   90.2088   14.0814 C.ar    1  UNL1       -0.0178
      5 C          63.5444   89.9442   12.7822 C.ar    1  UNL1       -0.0039
      6 C          63.2464   88.5348   12.3641 C.ar    1  UNL1       -0.0003
      7 O          62.5047   79.2017   12.0655 O.3     1  UNL1       -0.5055
      8 C          62.8026   80.6112   12.4835 C.ar    1  UNL1        0.1337
      9 C          63.4452   80.8795   13.8121 C.ar    1  UNL1        0.0366
     10 C          63.7432   82.2889   14.2301 C.ar    1  UNL1        0.0031
     11 C          63.3986   83.4300   13.3196 C.ar    1  UNL1        0.0002
     12 C          63.6965   84.8394   13.7377 C.ar    1  UNL1        0.0000
     13 C          63.3519   85.9805   12.8272 C.ar    1  UNL1       -0.0000
     14 C          62.7093   85.7123   11.4986 C.ar    1  UNL1        0.0000
     15 C          62.4113   84.3028   11.0805 C.ar    1  UNL1        0.0001
     16 C          62.7560   83.1617   11.9911 C.ar    1  UNL1        0.0030
     17 C          62.4580   81.7523   11.5731 C.ar    1  UNL1        0.0366
     18 H          62.7199   78.4889   12.6343 H       1  UNL1        0.2922
     19 C          64.5438   91.6182   14.4994 C.3     1  UNL1        0.0527
     20 C          65.9659   92.0725   14.6452 C.ar    1  UNL1       -0.0147
     21 C          66.3990   92.7948   15.8864 C.ar    1  UNL1        0.0167
     22 C          67.8212   93.2491   16.0322 C.ar    1  UNL1        0.0986
     23 N          68.8101   92.9811   14.9367 N.ar    1  UNL1       -0.2423
     24 C          68.3769   92.2588   13.6954 C.ar    1  UNL1        0.0986
     25 C          66.9549   91.8045   13.5497 C.ar    1  UNL1        0.0167
@<TRIPOS>BOND
     1     7     8    1
     2     8     9   ar
     3     9    10   ar
     4    10    11   ar
     5    11    12   ar
     6    12    13   ar
     7    13     1    1
     8     1     2   ar
     9     2     3   ar
    10     3     4   ar
    11     4    19    1
    12    19    20    1
    13    20    21   ar
    14    21    22   ar
    15    22    23   ar
    16    23    24   ar
    17    24    25   ar
    18     4     5   ar
    19     5     6   ar
    20    13    14   ar
    21    14    15   ar
    22    15    16   ar
    23    16    17   ar
    24    17     8   ar
    25    16    11   ar
    26     6     1   ar
    27    25    20   ar
    28     7    18    1
@<TRIPOS>MOLECULE
*****
 25 28 0 0 0
SMALL
GASTEIGER

@<TRIPOS>ATOM
      1 C          63.5471   86.2285   13.5269 C.ar    1  UNL1       -0.0000
      2 C          64.1744   86.6867   14.8101 C.ar    1  UNL1       -0.0003
      3 C          64.3998   88.1494   15.0543 C.ar    1  UNL1       -0.0039
      4 C          63.9980   89.1539   14.0152 C.ar    1  UNL1       -0.0178
      5 C          63.3707   88.6957   12.7321 C.ar    1  UNL1       -0.0039
      6 C          63.1452   87.2329   12.4879 C.ar    1  UNL1       -0.0003
      7 O          62.6458   78.3390   10.9397 O.3     1  UNL1       -0.5055
      8 C          62.8713   79.8017   11.1839 C.ar    1  UNL1        0.1337
      9 C          63.3229   80.6885   10.0616 C.ar    1  UNL1        0.0366
     10 C          63.5483   82.1512   10.3057 C.ar    1  UNL1        0.0031
     11 C          63.3222   82.7271   11.6722 C.ar    1  UNL1        0.0002
     12 C          63.5477   84.1899   11.9163 C.ar    1  UNL1        0.0000
     13 C          63.3216   84.7657   13.2828 C.ar    1  UNL1       -0.0000
     14 C          62.8700   83.8789   14.4051 C.ar    1  UNL1        0.0000
     15 C          62.6446   82.4162   14.1610 C.ar    1  UNL1        0.0001
     16 C          62.8707   81.8403   12.7945 C.ar    1  UNL1        0.0030
     17 C          62.6452   80.3776   12.5503 C.ar    1  UNL1        0.0366
     18 H          62.7871   77.9792   10.0861 H       1  UNL1        0.2922
     19 C          64.2234   90.6166   14.2594 C.3     1  UNL1        0.0527
     20 C          65.3031   91.3438   13.5139 C.ar    1  UNL1       -0.0147
     21 C          64.9874   92.0327   12.2194 C.ar    1  UNL1        0.0167
     22 C          66.0670   92.7598   11.4739 C.ar    1  UNL1        0.0986
     23 N          67.4624   92.7980   12.0230 N.ar    1  UNL1       -0.2423
     24 C          67.7781   92.1090   13.3175 C.ar    1  UNL1        0.0986
     25 C          66.6985   91.3819   14.0629 C.ar    1  UNL1        0.0167
@<TRIPOS>BOND
     1     7     8    1
     2     8     9   ar
     3     9    10   ar
     4    10    11   ar
     5    11    12   ar
     6    12    13   ar
     7    13     1    1
     8     1     2   ar
     9     2     3   ar
    10     3     4   ar
    11     4    19    1
    12    19    20    1
    13    20    21   ar
    14    21    22   ar
    15    22    23   ar
    16    23    24   ar
    17    24    25   ar
    18     4     5   ar
    19     5     6   ar
    20    13    14   ar
    21    14    15   ar
    22    15    16   ar
    23    16    17   ar
    24    17     8   ar
    25    16    11   ar
    26     6     1   ar
    27    25    20   ar
    28     7    18    1
@<TRIPOS>MOLECULE
*****
 25 28 0 0 0
SMALL
GASTEIGER

@<TRIPOS>ATOM
      1 C          63.4164   90.2931   11.6114 C.ar    1  UNL1       -0.0000
      2 C          62.6798   90.7078   10.3722 C.ar    1  UNL1       -0.0003
      3 C          61.7121   89.7630    9.7234 C.ar    1  UNL1       -0.0039
      4 C          61.4809   88.4036   10.3139 C.ar    1  UNL1       -0.0178
      5 C          62.2174   87.9889   11.5530 C.ar    1  UNL1       -0.0039
      6 C          63.1852   88.9337   12.2018 C.ar    1  UNL1       -0.0003
      7 O          68.7796   94.7262   16.2302 O.3     1  UNL1       -0.5055
      8 C          67.8118   93.7815   15.5814 C.ar    1  UNL1        0.1337
      9 C          67.3685   92.5461   16.3076 C.ar    1  UNL1        0.0366
     10 C          66.4008   91.6014   15.6588 C.ar    1  UNL1        0.0031
     11 C          65.8763   91.8920   14.2839 C.ar    1  UNL1        0.0002
     12 C          64.9086   90.9472   13.6351 C.ar    1  UNL1        0.0000
     13 C          64.3841   91.2378   12.2602 C.ar    1  UNL1       -0.0000
     14 C          64.8275   92.4732   11.5339 C.ar    1  UNL1        0.0000
     15 C          65.7952   93.4180   12.1827 C.ar    1  UNL1        0.0001
     16 C          66.3197   93.1273   13.5577 C.ar    1  UNL1        0.0030
     17 C          67.2874   94.0720   14.2065 C.ar    1  UNL1        0.0366
     18 H          69.1072   94.5447   17.0891 H       1  UNL1        0.2922
     19 C          60.5131   87.4588    9.6651 C.3     1  UNL1        0.0527
     20 C          60.9983   86.4711    8.6457 C.ar    1  UNL1       -0.0147
     21 C          60.0678   85.9770    7.5780 C.ar    1  UNL1        0.0167
     22 C          60.5529   84.9893    6.5585 C.ar    1  UNL1        0.0986
     23 N          61.9686   84.4958    6.6068 N.ar    1  UNL1       -0.2423
     24 C          62.8991   84.9900    7.6746 C.ar    1  UNL1        0.0986
     25 C          62.4139   85.9776    8.6940 C.ar    1  UNL1        0.0167
@<TRIPOS>BOND
     1     7     8    1
     2     8     9   ar
     3     9    10   ar
     4    10    11   ar
     5    11    12   ar
     6    12    13   ar
     7    13     1    1
     8     1     2   ar
     9     2     3   ar
    10     3     4   ar
    11     4    19    1
    12    19    20    1
    13    20    21   ar
    14    21    22   ar
    15    22    23   ar
    16    23    24   ar
    17    24    25   ar
    18     4     5   ar
    19     5     6   ar
    20    13    14   ar
    21    14    15   ar
    22    15    16   ar
    23    16    17   ar
    24    17     8   ar
    25    16    11   ar
    26     6     1   ar
    27    25    20   ar
    28     7    18    1
@<TRIPOS>MOLECULE
*****
 25 28 0 0 0
SMALL
GASTEIGER

@<TRIPOS>ATOM
      1 C          63.5124   89.6894   12.6768 C.ar    1  UNL1       -0.0000
      2 C          63.9019   91.0805   12.2727 C.ar    1  UNL1       -0.0003
      3 C          64.6935   91.9406   13.2128 C.ar    1  UNL1       -0.0039
      4 C          65.0956   91.4095   14.5568 C.ar    1  UNL1       -0.0178
      5 C          64.7061   90.0185   14.9608 C.ar    1  UNL1       -0.0039
      6 C          63.9145   89.1584   14.0208 C.ar    1  UNL1       -0.0003
      7 O          58.6864   86.0232    6.9305 O.3     1  UNL1       -0.5055
      8 C          59.4780   86.8833    7.8705 C.ar    1  UNL1        0.1337
      9 C          59.4018   88.3775    7.7644 C.ar    1  UNL1        0.0366
     10 C          60.1934   89.2376    8.7044 C.ar    1  UNL1        0.0031
     11 C          61.0613   88.6034    9.7506 C.ar    1  UNL1        0.0002
     12 C          61.8529   89.4635   10.6906 C.ar    1  UNL1        0.0000
     13 C          62.7207   88.8293   11.7368 C.ar    1  UNL1       -0.0000
     14 C          62.7970   87.3350   11.8430 C.ar    1  UNL1        0.0000
     15 C          62.0054   86.4749   10.9030 C.ar    1  UNL1        0.0001
     16 C          61.1375   87.1091    9.8567 C.ar    1  UNL1        0.0030
     17 C          60.3459   86.2491    8.9167 C.ar    1  UNL1        0.0366
     18 H          58.1443   86.4193    6.2770 H       1  UNL1        0.2922
     19 C          65.8872   92.2696   15.4968 C.3     1  UNL1        0.0527
     20 C          67.3339   92.5510   15.2178 C.ar    1  UNL1       -0.0147
     21 C          68.0872   93.5254   16.0740 C.ar    1  UNL1        0.0167
     22 C          69.5339   93.8068   15.7950 C.ar    1  UNL1        0.0986
     23 N          70.2274   93.1137   14.6597 N.ar    1  UNL1       -0.2423
     24 C          69.4741   92.1392   13.8035 C.ar    1  UNL1        0.0986
     25 C          68.0274   91.8579   14.0826 C.ar    1  UNL1        0.0167
@<TRIPOS>BOND
     1     7     8    1
     2     8     9   ar
     3     9    10   ar
     4    10    11   ar
     5    11    12   ar
     6    12    13   ar
     7    13     1    1
     8     1     2   ar
     9     2     3   ar
    10     3     4   ar
    11     4    19    1
    12    19    20    1
    13    20    21   ar
    14    21    22   ar
    15    22    23   ar
    16    23    24   ar
    17    24    25   ar
    18     4     5   ar
    19     5     6   ar
    20    13    14   ar
    21    14    15   ar
    22    15    16   ar
    23    16    17   ar
    24    17     8   ar
    25    16    11   ar
    26     6     1   ar
    27    25    20   ar
    28     7    18    1
@<TRIPOS>MOLECULE
*****
 25 28 0 0 0
SMALL
GASTEIGER

@<TRIPOS>ATOM
      1 C          61.0277   87.5050    9.7888 C.ar    1  UNL1       -0.0000
      2 C          60.9215   88.9970    9.6750 C.ar    1  UNL1       -0.0003
      3 C          60.1185   89.6093    8.5659 C.ar    1  UNL1       -0.0039
      4 C          59.4217   88.7297    7.5704 C.ar    1  UNL1       -0.0178
      5 C          59.5279   87.2378    7.6842 C.ar    1  UNL1       -0.0039
      6 C          60.3309   86.6255    8.7934 C.ar    1  UNL1       -0.0003
      7 O          65.0302   82.9572   15.5375 O.3     1  UNL1       -0.5055
      8 C          64.2272   83.5696   14.4283 C.ar    1  UNL1        0.1337
      9 C          63.4116   82.6958   13.5221 C.ar    1  UNL1        0.0366
     10 C          62.6086   83.3081   12.4129 C.ar    1  UNL1        0.0031
     11 C          62.6212   84.7942   12.2100 C.ar    1  UNL1        0.0002
     12 C          61.8182   85.4066   11.1008 C.ar    1  UNL1        0.0000
     13 C          61.8307   86.8927   10.8979 C.ar    1  UNL1       -0.0000
     14 C          62.6463   87.7666   11.8041 C.ar    1  UNL1        0.0000
     15 C          63.4493   87.1542   12.9133 C.ar    1  UNL1        0.0001
     16 C          63.4367   85.6680   13.1162 C.ar    1  UNL1        0.0030
     17 C          64.2397   85.0557   14.2254 C.ar    1  UNL1        0.0366
     18 H          65.0223   82.0289   15.6642 H       1  UNL1        0.2922
     19 C          58.6187   89.3420    6.4613 C.3     1  UNL1        0.0527
     20 C          59.2321   90.3913    5.5821 C.ar    1  UNL1       -0.0147
     21 C          58.3739   91.4704    4.9915 C.ar    1  UNL1        0.0167
     22 C          58.9874   92.5197    4.1124 C.ar    1  UNL1        0.0986
     23 N          60.4590   92.4897    3.8239 N.ar    1  UNL1       -0.2423
     24 C          61.3173   91.4105    4.4146 C.ar    1  UNL1        0.0986
     25 C          60.7038   90.3613    5.2937 C.ar    1  UNL1        0.0167
@<TRIPOS>BOND
     1     7     8    1
     2     8     9   ar
     3     9    10   ar
     4    10    11   ar
     5    11    12   ar
     6    12    13   ar
     7    13     1    1
     8     1     2   ar
     9     2     3   ar
    10     3     4   ar
    11     4    19    1
    12    19    20    1
    13    20    21   ar
    14    21    22   ar
    15    22    23   ar
    16    23    24   ar
    17    24    25   ar
    18     4     5   ar
    19     5     6   ar
    20    13    14   ar
    21    14    15   ar
    22    15    16   ar
    23    16    17   ar
    24    17     8   ar
    25    16    11   ar
    26     6     1   ar
    27    25    20   ar
    28     7    18    1
@<TRIPOS>MOLECULE
*****
 25 28 0 0 0
SMALL
GASTEIGER

@<TRIPOS>ATOM
      1 C          63.0288   89.4560   12.5221 C.ar    1  UNL1       -0.0000
      2 C          62.0351   90.1437   11.6334 C.ar    1  UNL1       -0.0003
      3 C          61.1672   89.3369   10.7138 C.ar    1  UNL1       -0.0039
      4 C          61.2929   87.8424   10.6828 C.ar    1  UNL1       -0.0178
      5 C          62.2866   87.1549   11.5715 C.ar    1  UNL1       -0.0039
      6 C          63.1545   87.9617   12.4912 C.ar    1  UNL1       -0.0003
      7 O          68.6009   94.1616   16.5914 O.3     1  UNL1       -0.5055
      8 C          67.7330   93.3548   15.6718 C.ar    1  UNL1        0.1337
      9 C          68.0975   93.2196   14.2231 C.ar    1  UNL1        0.0366
     10 C          67.2296   92.4128   13.3034 C.ar    1  UNL1        0.0031
     11 C          65.9971   91.7412   13.8324 C.ar    1  UNL1        0.0002
     12 C          65.1292   90.9344   12.9128 C.ar    1  UNL1        0.0000
     13 C          63.8967   90.2628   13.4418 C.ar    1  UNL1       -0.0000
     14 C          63.5321   90.3980   14.8906 C.ar    1  UNL1        0.0000
     15 C          64.4000   91.2048   15.8103 C.ar    1  UNL1        0.0001
     16 C          65.6326   91.8764   15.2811 C.ar    1  UNL1        0.0030
     17 C          66.5005   92.6832   16.2008 C.ar    1  UNL1        0.0366
     18 H          69.3708   94.5812   16.2609 H       1  UNL1        0.2922
     19 C          60.4250   87.0356    9.7632 C.3     1  UNL1        0.0527
     20 C          61.0485   86.1997    8.6848 C.ar    1  UNL1       -0.0147
     21 C          62.4904   85.7990    8.7858 C.ar    1  UNL1        0.0167
     22 C          63.1138   84.9630    7.7075 C.ar    1  UNL1        0.0986
     23 N          62.2953   84.5280    6.5283 N.ar    1  UNL1       -0.2423
     24 C          60.8533   84.9288    6.4273 C.ar    1  UNL1        0.0986
     25 C          60.2299   85.7646    7.5056 C.ar    1  UNL1        0.0167
@<TRIPOS>BOND
     1     7     8    1
     2     8     9   ar
     3     9    10   ar
     4    10    11   ar
     5    11    12   ar
     6    12    13   ar
     7    13     1    1
     8     1     2   ar
     9     2     3   ar
    10     3     4   ar
    11     4    19    1
    12    19    20    1
    13    20    21   ar
    14    21    22   ar
    15    22    23   ar
    16    23    24   ar
    17    24    25   ar
    18     4     5   ar
    19     5     6   ar
    20    13    14   ar
    21    14    15   ar
    22    15    16   ar
    23    16    17   ar
    24    17     8   ar
    25    16    11   ar
    26     6     1   ar
    27    25    20   ar
    28     7    18    1
@<TRIPOS>MOLECULE
*****
 25 28 0 0 0
SMALL
GASTEIGER

@<TRIPOS>ATOM
      1 C          61.0404   86.7960    8.9333 C.ar    1  UNL1       -0.0000
      2 C          60.1648   86.3713    7.7917 C.ar    1  UNL1       -0.0003
      3 C          59.3577   87.3921    7.0456 C.ar    1  UNL1       -0.0039
      4 C          59.4262   88.8375    7.4410 C.ar    1  UNL1       -0.0178
      5 C          60.3018   89.2620    8.5825 C.ar    1  UNL1       -0.0039
      6 C          61.1089   88.2413    9.3286 C.ar    1  UNL1       -0.0003
      7 O          64.8781   81.5126   14.1398 O.3     1  UNL1       -0.5055
      8 C          64.0710   82.5333   13.3937 C.ar    1  UNL1        0.1337
      9 C          63.0662   83.3745   14.1236 C.ar    1  UNL1        0.0366
     10 C          62.2591   84.3952   13.3775 C.ar    1  UNL1        0.0031
     11 C          62.4568   84.5748   11.9015 C.ar    1  UNL1        0.0002
     12 C          61.6497   85.5956   11.1554 C.ar    1  UNL1        0.0000
     13 C          61.8475   85.7752    9.6794 C.ar    1  UNL1       -0.0000
     14 C          62.8523   84.9340    8.9494 C.ar    1  UNL1        0.0000
     15 C          63.6594   83.9133    9.6955 C.ar    1  UNL1        0.0001
     16 C          63.4616   83.7337   11.1716 C.ar    1  UNL1        0.0030
     17 C          64.2687   82.7129   11.9177 C.ar    1  UNL1        0.0366
     18 H          64.7545   81.4004   15.0618 H       1  UNL1        0.2922
     19 C          58.6192   89.8582    6.6949 C.3     1  UNL1        0.0527
     20 C          59.2665   90.6946    5.6312 C.ar    1  UNL1       -0.0147
     21 C          60.7357   90.5591    5.3611 C.ar    1  UNL1        0.0167
     22 C          61.3830   91.3955    4.2973 C.ar    1  UNL1        0.0986
     23 N          60.5610   92.3673    3.5037 N.ar    1  UNL1       -0.2423
     24 C          59.0917   92.5028    3.7738 C.ar    1  UNL1        0.0986
     25 C          58.4445   91.6665    4.8375 C.ar    1  UNL1        0.0167
@<TRIPOS>BOND
     1     7     8    1
     2     8     9   ar
     3     9    10   ar
     4    10    11   ar
     5    11    12   ar
     6    12    13   ar
     7    13     1    1
     8     1     2   ar
     9     2     3   ar
    10     3     4   ar
    11     4    19    1
    12    19    20    1
    13    20    21   ar
    14    21    22   ar
    15    22    23   ar
    16    23    24   ar
    17    24    25   ar
    18     4     5   ar
    19     5     6   ar
    20    13    14   ar
    21    14    15   ar
    22    15    16   ar
    23    16    17   ar
    24    17     8   ar
    25    16    11   ar
    26     6     1   ar
    27    25    20   ar
    28     7    18    1
