@<TRIPOS>MOLECULE
*****
 31 33 0 0 0
SMALL
GASTEIGER

@<TRIPOS>ATOM
      1 C          64.5410   90.3329   14.6081 C.ar    1  UNL1        0.0050
      2 C          63.8676   90.9451   15.8005 C.ar    1  UNL1       -0.0001
      3 C          63.2354   90.0658   16.8383 C.ar    1  UNL1       -0.0030
      4 C          63.2766   88.5744   16.6838 C.ar    1  UNL1       -0.0088
      5 C          63.9500   87.9622   15.4915 C.ar    1  UNL1        0.0438
      6 C          64.5822   88.8415   14.4536 C.ar    1  UNL1        0.0143
      7 N          63.9912   86.4707   15.3369 N.pl3   1  UNL1       -0.3060
      8 C          63.3590   85.5915   16.3748 C.3     1  UNL1        0.0912
      9 C          62.6856   86.2036   17.5672 C.3     1  UNL1        0.0261
     10 C          62.6444   87.6951   17.7217 C.3     1  UNL1        0.0294
     11 C          66.5517   91.7609   13.7908 C.ar    1  UNL1        0.0645
     12 N          67.1839   92.6402   12.7530 N.ar    1  UNL1       -0.2183
     13 C          66.4377   92.9707   11.4944 C.ar    1  UNL1        0.2145
     14 N          67.0699   93.8500   10.4566 N.pl3   1  UNL1       -0.3274
     15 N          65.0592   92.4220   11.2738 N.ar    1  UNL1       -0.1995
     16 C          64.4270   91.5427   12.3117 C.ar    1  UNL1        0.1293
     17 N          63.0485   90.9940   12.0911 N.pl3   1  UNL1       -0.3425
     18 C          65.1732   91.2122   13.5702 C.ar    1  UNL1        0.0449
     19 H          67.9746   94.2101   10.6014 H       1  UNL1        0.1452
     20 H          66.5801   94.0669    9.6305 H       1  UNL1        0.1452
     21 H          62.5587   91.2109   11.2650 H       1  UNL1        0.1437
     22 H          62.6335   90.4169   12.7722 H       1  UNL1        0.1437
     23 C          67.5560   92.4983   16.0707 C.3     1  UNL1        0.0067
     24 C          67.2979   91.4304   15.0494 C.3     1  UNL1        0.0460
     25 C          64.6646   85.8586   14.1446 C.3     1  UNL1        0.1120
     26 C          65.0760   84.4164   14.1739 C.3     1  UNL1        0.1108
     27 N          64.5943   83.4772   13.1080 N.am    1  UNL1       -0.3026
     28 C          63.6037   82.4030   13.4467 C.2     1  UNL1        0.2230
     29 C          63.1220   81.4639   12.3809 C.3     1  UNL1        0.0946
     30 O          63.0948   82.2680   14.8513 O.2     1  UNL1       -0.2751
     31 H          64.9284   83.5659   12.1861 H       1  UNL1        0.1495
@<TRIPOS>BOND
     1    23    24    1
     2    24    11    1
     3    11    12   ar
     4    12    13   ar
     5    13    14    1
     6    13    15   ar
     7    15    16   ar
     8    16    17    1
     9    16    18   ar
    10    18     1    1
    11     1     2   ar
    12     2     3   ar
    13     3     4   ar
    14     4     5   ar
    15     5     6   ar
    16     5     7    1
    17     7    25    1
    18    25    26    1
    19    26    27    1
    20    27    28   am
    21    28    29    1
    22    28    30    2
    23     7     8    1
    24     8     9    1
    25     9    10    1
    26    18    11   ar
    27     6     1   ar
    28    10     4    1
    29    14    19    1
    30    14    20    1
    31    17    21    1
    32    17    22    1
    33    27    31    1
@<TRIPOS>MOLECULE
*****
 31 33 0 0 0
SMALL
GASTEIGER

@<TRIPOS>ATOM
      1 C          64.5635   90.2654   14.5649 C.ar    1  UNL1        0.0050
      2 C          63.8928   90.9001   15.7469 C.ar    1  UNL1       -0.0001
      3 C          63.2442   90.0413   16.7917 C.ar    1  UNL1       -0.0030
      4 C          63.2663   88.5477   16.6545 C.ar    1  UNL1       -0.0088
      5 C          63.9370   87.9130   15.4724 C.ar    1  UNL1        0.0438
      6 C          64.5856   88.7719   14.4276 C.ar    1  UNL1        0.0143
      7 N          63.9591   86.4195   15.3352 N.pl3   1  UNL1       -0.3060
      8 C          63.3105   85.5606   16.3800 C.3     1  UNL1        0.0912
      9 C          62.6398   86.1953   17.5622 C.3     1  UNL1        0.0261
     10 C          62.6177   87.6889   17.6994 C.3     1  UNL1        0.0294
     11 C          64.4962   91.4090   12.2329 C.ar    1  UNL1        0.0645
     12 N          65.1448   92.2678   11.1881 N.ar    1  UNL1       -0.2183
     13 C          66.5093   92.8419   11.4302 C.ar    1  UNL1        0.2145
     14 N          67.1578   93.7007   10.3853 N.pl3   1  UNL1       -0.3274
     15 N          67.2252   92.5572   12.7172 N.ar    1  UNL1       -0.1995
     16 C          66.5765   91.6984   13.7621 C.ar    1  UNL1        0.1293
     17 N          67.2924   91.4136   15.0492 N.pl3   1  UNL1       -0.3425
     18 C          65.2121   91.1243   13.5200 C.ar    1  UNL1        0.0449
     19 H          66.6880   93.8876    9.5406 H       1  UNL1        0.1452
     20 H          68.0534   94.0775   10.5443 H       1  UNL1        0.1452
     21 H          68.1879   91.7905   15.2081 H       1  UNL1        0.1437
     22 H          66.8667   90.8500   15.7350 H       1  UNL1        0.1437
     23 C          62.7529   90.3529   10.6218 C.3     1  UNL1        0.0067
     24 C          63.1317   90.8348   11.9908 C.3     1  UNL1        0.0460
     25 C          64.6297   85.7848   14.1531 C.3     1  UNL1        0.1120
     26 C          64.6515   84.2912   14.0157 C.3     1  UNL1        0.1108
     27 N          64.9612   83.6646   12.6884 N.am    1  UNL1       -0.3026
     28 C          63.8814   83.5196   11.6574 C.2     1  UNL1        0.2230
     29 C          64.1911   82.8930   10.3302 C.3     1  UNL1        0.0946
     30 O          62.4920   84.0011   11.9536 O.2     1  UNL1       -0.2751
     31 H          65.8731   83.3486   12.4941 H       1  UNL1        0.1495
@<TRIPOS>BOND
     1    23    24    1
     2    24    11    1
     3    11    12   ar
     4    12    13   ar
     5    13    14    1
     6    13    15   ar
     7    15    16   ar
     8    16    17    1
     9    16    18   ar
    10    18     1    1
    11     1     2   ar
    12     2     3   ar
    13     3     4   ar
    14     4     5   ar
    15     5     6   ar
    16     5     7    1
    17     7    25    1
    18    25    26    1
    19    26    27    1
    20    27    28   am
    21    28    29    1
    22    28    30    2
    23     7     8    1
    24     8     9    1
    25     9    10    1
    26    18    11   ar
    27     6     1   ar
    28    10     4    1
    29    14    19    1
    30    14    20    1
    31    17    21    1
    32    17    22    1
    33    27    31    1
@<TRIPOS>MOLECULE
*****
 31 33 0 0 0
SMALL
GASTEIGER

@<TRIPOS>ATOM
      1 C          63.2562   90.0905   12.2981 C.ar    1  UNL1        0.0050
      2 C          62.5500   90.8121   11.1889 C.ar    1  UNL1       -0.0001
      3 C          61.7933   90.0363   10.1518 C.ar    1  UNL1       -0.0030
      4 C          61.7428   88.5389   10.2240 C.ar    1  UNL1       -0.0088
      5 C          62.4491   87.8173   11.3332 C.ar    1  UNL1        0.0438
      6 C          63.2058   88.5931   12.3703 C.ar    1  UNL1        0.0143
      7 N          62.3986   86.3199   11.4054 N.pl3   1  UNL1       -0.3060
      8 C          61.6419   85.5441   10.3683 C.3     1  UNL1        0.0912
      9 C          60.9356   86.2657    9.2590 C.3     1  UNL1        0.0261
     10 C          60.9861   87.7631    9.1869 C.3     1  UNL1        0.0294
     11 C          65.0714   91.8434   12.9168 C.ar    1  UNL1        0.0645
     12 N          65.8281   92.6192   13.9538 N.ar    1  UNL1       -0.2183
     13 C          65.5265   92.4179   15.4094 C.ar    1  UNL1        0.2145
     14 N          66.2832   93.1936   16.4464 N.pl3   1  UNL1       -0.3274
     15 N          64.4681   91.4407   15.8278 N.ar    1  UNL1       -0.1995
     16 C          63.7114   90.6649   14.7907 C.ar    1  UNL1        0.1293
     17 N          62.6530   89.6878   15.2091 N.pl3   1  UNL1       -0.3425
     18 C          64.0130   90.8663   13.3352 C.ar    1  UNL1        0.0449
     19 H          66.9779   93.8349   16.1717 H       1  UNL1        0.1452
     20 H          66.0853   93.0615   17.4017 H       1  UNL1        0.1452
     21 H          62.4550   89.5557   16.1644 H       1  UNL1        0.1437
     22 H          62.1563   89.1787   14.5284 H       1  UNL1        0.1437
     23 C          65.5658   93.4303   10.9199 C.3     1  UNL1        0.0067
     24 C          65.3730   92.0447   11.4612 C.3     1  UNL1        0.0460
     25 C          63.1049   85.5983   12.5146 C.3     1  UNL1        0.1120
     26 C          63.5116   84.1653   12.3377 C.3     1  UNL1        0.1108
     27 N          62.5185   83.0681   12.5827 N.am    1  UNL1       -0.3026
     28 C          62.5370   82.3158   13.8803 C.2     1  UNL1        0.2230
     29 C          61.5440   81.2187   14.1254 C.3     1  UNL1        0.0946
     30 O          63.5486   82.6608   14.9329 O.2     1  UNL1       -0.2751
     31 H          61.8546   82.8417   11.8919 H       1  UNL1        0.1495
@<TRIPOS>BOND
     1    23    24    1
     2    24    11    1
     3    11    12   ar
     4    12    13   ar
     5    13    14    1
     6    13    15   ar
     7    15    16   ar
     8    16    17    1
     9    16    18   ar
    10    18     1    1
    11     1     2   ar
    12     2     3   ar
    13     3     4   ar
    14     4     5   ar
    15     5     6   ar
    16     5     7    1
    17     7    25    1
    18    25    26    1
    19    26    27    1
    20    27    28   am
    21    28    29    1
    22    28    30    2
    23     7     8    1
    24     8     9    1
    25     9    10    1
    26    18    11   ar
    27     6     1   ar
    28    10     4    1
    29    14    19    1
    30    14    20    1
    31    17    21    1
    32    17    22    1
    33    27    31    1
@<TRIPOS>MOLECULE
*****
 31 33 0 0 0
SMALL
GASTEIGER

@<TRIPOS>ATOM
      1 C          63.4397   85.3926   13.4563 C.ar    1  UNL1        0.0050
      2 C          64.2523   85.9836   14.5700 C.ar    1  UNL1       -0.0001
      3 C          64.5097   87.4608   14.6083 C.ar    1  UNL1       -0.0030
      4 C          63.9546   88.3470   13.5329 C.ar    1  UNL1       -0.0088
      5 C          63.1420   87.7560   12.4192 C.ar    1  UNL1        0.0438
      6 C          62.8845   86.2788   12.3809 C.ar    1  UNL1        0.0143
      7 N          62.5869   88.6422   11.3438 N.pl3   1  UNL1       -0.3060
      8 C          62.8444   90.1194   11.3821 C.3     1  UNL1        0.0912
      9 C          63.6570   90.7105   12.4958 C.3     1  UNL1        0.0261
     10 C          64.2121   89.8243   13.5712 C.3     1  UNL1        0.0294
     11 C          63.6386   83.1047   12.2412 C.ar    1  UNL1        0.0645
     12 N          63.3811   81.6275   12.2029 N.ar    1  UNL1       -0.2183
     13 C          62.6672   80.9608   13.3412 C.ar    1  UNL1        0.2145
     14 N          62.4097   79.4836   13.3029 N.pl3   1  UNL1       -0.3274
     15 N          62.2107   81.7713   14.5180 N.ar    1  UNL1       -0.1995
     16 C          62.4682   83.2486   14.5563 C.ar    1  UNL1        0.1293
     17 N          62.0118   84.0592   15.7330 N.pl3   1  UNL1       -0.3425
     18 C          63.1822   83.9153   13.4179 C.ar    1  UNL1        0.0449
     19 H          62.7093   78.9516   12.5305 H       1  UNL1        0.1452
     20 H          61.9411   79.0460   14.0500 H       1  UNL1        0.1452
     21 H          61.5432   83.6216   16.4801 H       1  UNL1        0.1437
     22 H          62.1808   85.0288   15.7582 H       1  UNL1        0.1437
     23 C          63.7665   83.7299    9.7227 C.3     1  UNL1        0.0067
     24 C          64.3526   83.7714   11.1029 C.3     1  UNL1        0.0460
     25 C          61.7743   88.0512   10.2301 C.3     1  UNL1        0.1120
     26 C          60.4443   88.6466    9.8744 C.3     1  UNL1        0.1108
     27 N          60.2868   89.4235    8.6009 N.am    1  UNL1       -0.3026
     28 C          59.4224   88.8885    7.4980 C.2     1  UNL1        0.2230
     29 C          59.2649   89.6653    6.2245 C.3     1  UNL1        0.0946
     30 O          58.7154   87.5765    7.6685 O.2     1  UNL1       -0.2751
     31 H          60.7508   90.2846    8.4890 H       1  UNL1        0.1495
@<TRIPOS>BOND
     1    23    24    1
     2    24    11    1
     3    11    12   ar
     4    12    13   ar
     5    13    14    1
     6    13    15   ar
     7    15    16   ar
     8    16    17    1
     9    16    18   ar
    10    18     1    1
    11     1     2   ar
    12     2     3   ar
    13     3     4   ar
    14     4     5   ar
    15     5     6   ar
    16     5     7    1
    17     7    25    1
    18    25    26    1
    19    26    27    1
    20    27    28   am
    21    28    29    1
    22    28    30    2
    23     7     8    1
    24     8     9    1
    25     9    10    1
    26    18    11   ar
    27     6     1   ar
    28    10     4    1
    29    14    19    1
    30    14    20    1
    31    17    21    1
    32    17    22    1
    33    27    31    1
@<TRIPOS>MOLECULE
*****
 31 33 0 0 0
SMALL
GASTEIGER

@<TRIPOS>ATOM
      1 C          63.4484   85.5220   13.4985 C.ar    1  UNL1        0.0050
      2 C          64.2114   86.1080   14.6493 C.ar    1  UNL1       -0.0001
      3 C          64.4820   87.5826   14.6965 C.ar    1  UNL1       -0.0030
      4 C          63.9897   88.4712   13.5928 C.ar    1  UNL1       -0.0088
      5 C          63.2268   87.8852   12.4420 C.ar    1  UNL1        0.0438
      6 C          62.9561   86.4106   12.3948 C.ar    1  UNL1        0.0143
      7 N          62.7345   88.7737   11.3383 N.pl3   1  UNL1       -0.3060
      8 C          63.0051   90.2483   11.3855 C.3     1  UNL1        0.0912
      9 C          63.7682   90.8344   12.5363 C.3     1  UNL1        0.0261
     10 C          64.2605   89.9458   13.6400 C.3     1  UNL1        0.0294
     11 C          63.5944   83.2463   12.2536 C.ar    1  UNL1        0.0645
     12 N          63.3238   81.7717   12.2063 N.ar    1  UNL1       -0.2183
     13 C          62.6363   81.0981   13.3569 C.ar    1  UNL1        0.2145
     14 N          62.3656   79.6235   13.3096 N.pl3   1  UNL1       -0.3274
     15 N          62.2196   81.8991   14.5546 N.ar    1  UNL1       -0.1995
     16 C          62.4903   83.3738   14.6018 C.ar    1  UNL1        0.1293
     17 N          62.0735   84.1748   15.7996 N.pl3   1  UNL1       -0.3425
     18 C          63.1777   84.0473   13.4513 C.ar    1  UNL1        0.0449
     19 H          62.6392   79.0977   12.5235 H       1  UNL1        0.1452
     20 H          61.9145   79.1814   14.0648 H       1  UNL1        0.1452
     21 H          61.6223   83.7328   16.5547 H       1  UNL1        0.1437
     22 H          62.2512   85.1427   15.8306 H       1  UNL1        0.1437
     23 C          63.8159   83.6684    9.6996 C.3     1  UNL1        0.0067
     24 C          64.2819   83.9199   11.1030 C.3     1  UNL1        0.0460
     25 C          61.9715   88.1877   10.1875 C.3     1  UNL1        0.1120
     26 C          60.4724   88.2386   10.1779 C.3     1  UNL1        0.1108
     27 N          59.7051   87.9808   11.4408 N.am    1  UNL1       -0.3026
     28 C          59.0884   89.1244   12.1903 C.2     1  UNL1        0.2230
     29 C          58.3211   88.8667   13.4532 C.3     1  UNL1        0.0946
     30 O          59.2390   90.5259   11.6770 O.2     1  UNL1       -0.2751
     31 H          59.6063   87.0611   11.7777 H       1  UNL1        0.1495
@<TRIPOS>BOND
     1    23    24    1
     2    24    11    1
     3    11    12   ar
     4    12    13   ar
     5    13    14    1
     6    13    15   ar
     7    15    16   ar
     8    16    17    1
     9    16    18   ar
    10    18     1    1
    11     1     2   ar
    12     2     3   ar
    13     3     4   ar
    14     4     5   ar
    15     5     6   ar
    16     5     7    1
    17     7    25    1
    18    25    26    1
    19    26    27    1
    20    27    28   am
    21    28    29    1
    22    28    30    2
    23     7     8    1
    24     8     9    1
    25     9    10    1
    26    18    11   ar
    27     6     1   ar
    28    10     4    1
    29    14    19    1
    30    14    20    1
    31    17    21    1
    32    17    22    1
    33    27    31    1
@<TRIPOS>MOLECULE
*****
 31 33 0 0 0
SMALL
GASTEIGER

@<TRIPOS>ATOM
      1 C          62.0837   86.3709   10.6794 C.ar    1  UNL1        0.0050
      2 C          62.6287   86.0079    9.3298 C.ar    1  UNL1       -0.0001
      3 C          63.3162   84.6901    9.1284 C.ar    1  UNL1       -0.0030
      4 C          63.4588   83.7353   10.2764 C.ar    1  UNL1       -0.0088
      5 C          62.9139   84.0983   11.6260 C.ar    1  UNL1        0.0438
      6 C          62.2264   85.4161   11.8274 C.ar    1  UNL1        0.0143
      7 N          63.0565   83.1435   12.7740 N.pl3   1  UNL1       -0.3060
      8 C          63.7441   81.8257   12.5726 C.3     1  UNL1        0.0912
      9 C          64.2890   81.4627   11.2230 C.3     1  UNL1        0.0261
     10 C          64.1464   82.4174   10.0749 C.3     1  UNL1        0.0294
     11 C          60.1302   87.9957   10.1370 C.ar    1  UNL1        0.0645
     12 N          59.4427   89.3135   10.3385 N.ar    1  UNL1       -0.2183
     13 C          60.0210   90.3244   11.2839 C.ar    1  UNL1        0.2145
     14 N          59.3334   91.6422   11.4853 N.pl3   1  UNL1       -0.3274
     15 N          61.2869   90.0175   12.0277 N.ar    1  UNL1       -0.1995
     16 C          61.9745   88.6997   11.8262 C.ar    1  UNL1        0.1293
     17 N          63.2404   88.3927   12.5700 N.pl3   1  UNL1       -0.3425
     18 C          61.3962   87.6888   10.8809 C.ar    1  UNL1        0.0449
     19 H          58.5025   91.8436   10.9971 H       1  UNL1        0.1452
     20 H          59.7130   92.3057   12.1058 H       1  UNL1        0.1452
     21 H          63.6200   89.0562   13.1904 H       1  UNL1        0.1437
     22 H          63.6917   87.5278   12.4377 H       1  UNL1        0.1437
     23 C          59.1967   87.3854    7.7905 C.3     1  UNL1        0.0067
     24 C          59.5519   86.9847    9.1917 C.3     1  UNL1        0.0460
     25 C          62.5116   83.5065   14.1235 C.3     1  UNL1        0.1120
     26 C          63.4458   83.9073   15.2266 C.3     1  UNL1        0.1108
     27 N          62.9419   84.7327   16.3733 N.am    1  UNL1       -0.3026
     28 C          63.2095   86.2082   16.4099 C.2     1  UNL1        0.2230
     29 C          62.7057   87.0336   17.5566 C.3     1  UNL1        0.0946
     30 O          63.9809   86.8583   15.2998 O.2     1  UNL1       -0.2751
     31 H          62.4356   84.3060   17.1019 H       1  UNL1        0.1495
@<TRIPOS>BOND
     1    23    24    1
     2    24    11    1
     3    11    12   ar
     4    12    13   ar
     5    13    14    1
     6    13    15   ar
     7    15    16   ar
     8    16    17    1
     9    16    18   ar
    10    18     1    1
    11     1     2   ar
    12     2     3   ar
    13     3     4   ar
    14     4     5   ar
    15     5     6   ar
    16     5     7    1
    17     7    25    1
    18    25    26    1
    19    26    27    1
    20    27    28   am
    21    28    29    1
    22    28    30    2
    23     7     8    1
    24     8     9    1
    25     9    10    1
    26    18    11   ar
    27     6     1   ar
    28    10     4    1
    29    14    19    1
    30    14    20    1
    31    17    21    1
    32    17    22    1
    33    27    31    1
@<TRIPOS>MOLECULE
*****
 31 33 0 0 0
SMALL
GASTEIGER

@<TRIPOS>ATOM
      1 C          62.9774   85.7053   12.7269 C.ar    1  UNL1        0.0050
      2 C          63.8268   86.7369   13.4083 C.ar    1  UNL1       -0.0001
      3 C          63.7346   88.1760   12.9954 C.ar    1  UNL1       -0.0030
      4 C          62.7931   88.5835   11.9011 C.ar    1  UNL1       -0.0088
      5 C          61.9438   87.5519   11.2196 C.ar    1  UNL1        0.0438
      6 C          62.0359   86.1128   11.6326 C.ar    1  UNL1        0.0143
      7 N          61.0023   87.9593   10.1253 N.pl3   1  UNL1       -0.3060
      8 C          60.9102   89.3984    9.7124 C.3     1  UNL1        0.0912
      9 C          61.7595   90.4301   10.3938 C.3     1  UNL1        0.0261
     10 C          62.7010   90.0226   11.4881 C.3     1  UNL1        0.0294
     11 C          63.8141   83.2861   12.2825 C.ar    1  UNL1        0.0645
     12 N          63.9063   81.8471   12.6953 N.ar    1  UNL1       -0.2183
     13 C          63.2538   81.3879   13.9656 C.ar    1  UNL1        0.2145
     14 N          63.3459   79.9489   14.3785 N.pl3   1  UNL1       -0.3274
     15 N          62.5092   82.3680   14.8230 N.ar    1  UNL1       -0.1995
     16 C          62.4171   83.8071   14.4101 C.ar    1  UNL1        0.1293
     17 N          61.6725   84.7872   15.2674 N.pl3   1  UNL1       -0.3425
     18 C          63.0695   84.2662   13.1398 C.ar    1  UNL1        0.0449
     19 H          63.8346   79.3056   13.8157 H       1  UNL1        0.1452
     20 H          62.9177   79.6475   15.2122 H       1  UNL1        0.1452
     21 H          61.2442   84.4859   16.1011 H       1  UNL1        0.1437
     22 H          61.6120   85.7317   14.9964 H       1  UNL1        0.1437
     23 C          63.9262   83.2965    9.6868 C.3     1  UNL1        0.0067
     24 C          64.4666   83.7453   11.0122 C.3     1  UNL1        0.0460
     25 C          60.1530   86.9277    9.4439 C.3     1  UNL1        0.1120
     26 C          59.8075   87.0805    7.9922 C.3     1  UNL1        0.1108
     27 N          60.0328   85.9404    7.0437 N.am    1  UNL1       -0.3026
     28 C          61.3614   85.2450    7.0089 C.2     1  UNL1        0.2230
     29 C          61.5867   84.1050    6.0605 C.3     1  UNL1        0.0946
     30 O          62.4648   85.6897    7.9227 O.2     1  UNL1       -0.2751
     31 H          59.3086   85.6486    6.4440 H       1  UNL1        0.1495
@<TRIPOS>BOND
     1    23    24    1
     2    24    11    1
     3    11    12   ar
     4    12    13   ar
     5    13    14    1
     6    13    15   ar
     7    15    16   ar
     8    16    17    1
     9    16    18   ar
    10    18     1    1
    11     1     2   ar
    12     2     3   ar
    13     3     4   ar
    14     4     5   ar
    15     5     6   ar
    16     5     7    1
    17     7    25    1
    18    25    26    1
    19    26    27    1
    20    27    28   am
    21    28    29    1
    22    28    30    2
    23     7     8    1
    24     8     9    1
    25     9    10    1
    26    18    11   ar
    27     6     1   ar
    28    10     4    1
    29    14    19    1
    30    14    20    1
    31    17    21    1
    32    17    22    1
    33    27    31    1
@<TRIPOS>MOLECULE
*****
 31 33 0 0 0
SMALL
GASTEIGER

@<TRIPOS>ATOM
      1 C          62.0660   86.4164   10.6729 C.ar    1  UNL1        0.0050
      2 C          62.6642   86.0804    9.3391 C.ar    1  UNL1       -0.0001
      3 C          63.3546   84.7642    9.1369 C.ar    1  UNL1       -0.0030
      4 C          63.4467   83.7839   10.2686 C.ar    1  UNL1       -0.0088
      5 C          62.8485   84.1199   11.6024 C.ar    1  UNL1        0.0438
      6 C          62.1581   85.4361   11.8046 C.ar    1  UNL1        0.0143
      7 N          62.9406   83.1397   12.7341 N.pl3   1  UNL1       -0.3060
      8 C          63.6310   81.8235   12.5319 C.3     1  UNL1        0.0912
      9 C          64.2293   81.4874   11.1980 C.3     1  UNL1        0.0261
     10 C          64.1371   82.4677   10.0664 C.3     1  UNL1        0.0294
     11 C          61.9812   88.7663   11.7778 C.ar    1  UNL1        0.0645
     12 N          61.2908   90.0825   11.9800 N.ar    1  UNL1       -0.2183
     13 C          59.9948   90.3651   11.2796 C.ar    1  UNL1        0.2145
     14 N          59.3044   91.6813   11.4819 N.pl3   1  UNL1       -0.3274
     15 N          59.3891   89.3314   10.3770 N.ar    1  UNL1       -0.1995
     16 C          60.0796   88.0152   10.1748 C.ar    1  UNL1        0.1293
     17 N          59.4739   86.9815    9.2722 N.pl3   1  UNL1       -0.3425
     18 C          61.3755   87.7326   10.8752 C.ar    1  UNL1        0.0449
     19 H          59.7019   92.3598   12.0743 H       1  UNL1        0.1452
     20 H          58.4538   91.8668   11.0222 H       1  UNL1        0.1452
     21 H          58.6233   87.1669    8.8125 H       1  UNL1        0.1437
     22 H          59.9270   86.1176    9.1395 H       1  UNL1        0.1437
     23 C          63.8260   89.4695   13.4667 C.3     1  UNL1        0.0067
     24 C          63.2773   88.4837   12.4781 C.3     1  UNL1        0.0460
     25 C          62.3424   83.4757   14.0679 C.3     1  UNL1        0.1120
     26 C          63.2232   83.9425   15.1888 C.3     1  UNL1        0.1108
     27 N          62.7786   85.0705   16.0721 N.am    1  UNL1       -0.3026
     28 C          63.5264   86.3707   16.0617 C.2     1  UNL1        0.2230
     29 C          63.0818   87.4987   16.9449 C.3     1  UNL1        0.0946
     30 O          64.7187   86.5430   15.1680 O.2     1  UNL1       -0.2751
     31 H          61.9960   84.9574   16.6586 H       1  UNL1        0.1495
@<TRIPOS>BOND
     1    23    24    1
     2    24    11    1
     3    11    12   ar
     4    12    13   ar
     5    13    14    1
     6    13    15   ar
     7    15    16   ar
     8    16    17    1
     9    16    18   ar
    10    18     1    1
    11     1     2   ar
    12     2     3   ar
    13     3     4   ar
    14     4     5   ar
    15     5     6   ar
    16     5     7    1
    17     7    25    1
    18    25    26    1
    19    26    27    1
    20    27    28   am
    21    28    29    1
    22    28    30    2
    23     7     8    1
    24     8     9    1
    25     9    10    1
    26    18    11   ar
    27     6     1   ar
    28    10     4    1
    29    14    19    1
    30    14    20    1
    31    17    21    1
    32    17    22    1
    33    27    31    1
@<TRIPOS>MOLECULE
*****
 31 33 0 0 0
SMALL
GASTEIGER

@<TRIPOS>ATOM
      1 C          62.6708   85.5151   11.9371 C.ar    1  UNL1        0.0050
      2 C          61.8612   85.6282   10.6795 C.ar    1  UNL1       -0.0001
      3 C          61.5783   86.9774   10.0883 C.ar    1  UNL1       -0.0030
      4 C          62.1052   88.2136   10.7548 C.ar    1  UNL1       -0.0088
      5 C          62.9148   88.1006   12.0124 C.ar    1  UNL1        0.0438
      6 C          63.1976   86.7513   12.6036 C.ar    1  UNL1        0.0143
      7 N          63.4417   89.3368   12.6789 N.pl3   1  UNL1       -0.3060
      8 C          63.1588   90.6861   12.0878 C.3     1  UNL1        0.0912
      9 C          62.3491   90.7992   10.8301 C.3     1  UNL1        0.0261
     10 C          61.8223   89.5630   10.1636 C.3     1  UNL1        0.0294
     11 C          62.6102   83.8881   13.9618 C.ar    1  UNL1        0.0645
     12 N          62.8931   82.5389   14.5530 N.ar    1  UNL1       -0.2183
     13 C          63.5194   81.4673   13.7107 C.ar    1  UNL1        0.2145
     14 N          63.8022   80.1181   14.3019 N.pl3   1  UNL1       -0.3274
     15 N          63.8628   81.7450   12.2771 N.ar    1  UNL1       -0.1995
     16 C          63.5799   83.0943   11.6860 C.ar    1  UNL1        0.1293
     17 N          63.9234   83.3719   10.2524 N.pl3   1  UNL1       -0.3425
     18 C          62.9537   84.1658   12.5283 C.ar    1  UNL1        0.0449
     19 H          63.5768   79.9358   15.2427 H       1  UNL1        0.1452
     20 H          64.2132   79.4147   13.7490 H       1  UNL1        0.1452
     21 H          64.3344   82.6686    9.6996 H       1  UNL1        0.1437
     22 H          63.7377   84.2575    9.8644 H       1  UNL1        0.1437
     23 C          62.3789   85.1091   16.2434 C.3     1  UNL1        0.0067
     24 C          61.9840   84.9598   14.8041 C.3     1  UNL1        0.0460
     25 C          64.2513   89.2238   13.9366 C.3     1  UNL1        0.1120
     26 C          64.3752   90.4015   14.8572 C.3     1  UNL1        0.1108
     27 N          65.6520   91.1877   14.9016 N.am    1  UNL1       -0.3026
     28 C          65.8296   92.2726   15.9221 C.2     1  UNL1        0.2230
     29 C          67.1063   93.0587   15.9665 C.3     1  UNL1        0.0946
     30 O          64.7305   92.5714   16.8982 O.2     1  UNL1       -0.2751
     31 H          66.3734   90.9916   14.2609 H       1  UNL1        0.1495
@<TRIPOS>BOND
     1    23    24    1
     2    24    11    1
     3    11    12   ar
     4    12    13   ar
     5    13    14    1
     6    13    15   ar
     7    15    16   ar
     8    16    17    1
     9    16    18   ar
    10    18     1    1
    11     1     2   ar
    12     2     3   ar
    13     3     4   ar
    14     4     5   ar
    15     5     6   ar
    16     5     7    1
    17     7    25    1
    18    25    26    1
    19    26    27    1
    20    27    28   am
    21    28    29    1
    22    28    30    2
    23     7     8    1
    24     8     9    1
    25     9    10    1
    26    18    11   ar
    27     6     1   ar
    28    10     4    1
    29    14    19    1
    30    14    20    1
    31    17    21    1
    32    17    22    1
    33    27    31    1
