@<TRIPOS>MOLECULE
*****
 53 56 0 0 0
SMALL
GASTEIGER

@<TRIPOS>ATOM
      1 C          63.7825   91.4072   11.0167 C.3     1  UNL1        0.0760
      2 C          64.0505   89.8907   13.1092 C.2     1  UNL1        0.2403
      3 O          63.4820   88.7332   12.3431 O.2     1  UNL1       -0.2733
      4 N          64.2008   91.2277   12.4460 N.am    1  UNL1       -0.3043
      5 H          64.5739   91.9875   12.9489 H       1  UNL1        0.1494
      6 C          64.4688   89.7112   14.5385 C.3     1  UNL1        0.1496
      7 N          63.1322   86.6617   16.6982 N.am    1  UNL1       -0.2567
      8 C          61.9640   86.3185   17.5743 C.3     1  UNL1        0.1168
      9 C          63.2164   88.0148   16.0564 C.2     1  UNL1        0.3046
     10 O          62.1324   89.0249   16.2907 O.2     1  UNL1       -0.2526
     11 N          64.3846   88.3579   15.1803 N.am    1  UNL1       -0.2824
     12 H          65.0960   87.6951   15.0264 H       1  UNL1        0.1514
     13 C          64.2161   85.6517   16.4638 C.3     1  UNL1        0.1413
     14 C          63.2509   82.8443   13.9633 C.ar    1  UNL1        0.0875
     15 N          62.9922   83.6302   15.2145 N.ar    1  UNL1       -0.2453
     16 C          64.0820   84.6514   15.3541 C.ar    1  UNL1        0.0858
     17 C          65.0142   84.4967   14.1891 C.ar    1  UNL1        0.0530
     18 S          64.5006   83.3799   13.3296 S.2     1  UNL1       -0.0705
     19 C          61.2244   81.2395   14.2244 C.3     1  UNL1        0.0069
     20 C          62.4079   81.7202   13.4381 C.3     1  UNL1        0.0465
     21 C          62.7483   81.0770   12.1265 C.3     1  UNL1        0.0069
     22 C          64.9712   90.8848   15.3259 C.3     1  UNL1        0.0270
     23 C          66.3374   91.4411   15.0538 C.3     1  UNL1        0.0022
     24 C          64.1074   91.5021   16.3855 C.3     1  UNL1        0.0022
     25 C          63.0178   90.3229   10.3172 C.3     1  UNL1        0.0216
     26 C          61.5196   90.2979   10.3857 C.3     1  UNL1        0.0217
     27 C          60.7443   89.3602    9.5084 C.3     1  UNL1        0.0792
     28 N          60.3672   89.7741    8.1168 N.am    1  UNL1       -0.2720
     29 C          59.3297   88.9996    7.3592 C.2     1  UNL1        0.4020
     30 O          58.6694   87.8113    7.9931 O.2     1  UNL1       -0.2264
     31 H          60.8006   90.5540    7.7008 H       1  UNL1        0.1527
     32 O          58.9527   89.4135    5.9676 O.3     1  UNL1       -0.4280
     33 C          58.6800   90.8566    5.6622 C.3     1  UNL1        0.2550
     34 C          59.4755   91.5627    4.6046 C.ar    1  UNL1        0.0986
     35 C          60.9645   91.5020    4.4334 C.ar    1  UNL1        0.1168
     36 N          61.3309   92.3553    3.2555 N.ar    1  UNL1       -0.2228
     37 C          60.0683   92.9434    2.6986 C.ar    1  UNL1        0.1749
     38 N          58.9217   92.4535    3.5324 N.ar    1  UNL1       -0.3353
     39 H          57.9723   92.6774    3.3993 H       1  UNL1        0.1673
     40 C          60.3460   88.0086   10.0228 C.3     1  UNL1        0.0460
     41 C          61.3000   86.8556    9.9191 C.ar    1  UNL1       -0.0205
     42 C          61.5603   85.9878   11.1145 C.ar    1  UNL1       -0.0042
     43 C          62.5142   84.8349   11.0108 C.ar    1  UNL1       -0.0003
     44 C          63.2079   84.5499    9.7117 C.ar    1  UNL1       -0.0000
     45 C          62.9476   85.4177    8.5163 C.ar    1  UNL1       -0.0003
     46 C          61.9936   86.5706    8.6200 C.ar    1  UNL1       -0.0042
     47 C          64.1290   92.6712   10.2870 C.3     1  UNL1        0.0459
     48 C          65.5662   93.0440   10.0735 C.ar    1  UNL1       -0.0205
     49 C          66.6310   91.9890   10.1297 C.ar    1  UNL1       -0.0042
     50 C          68.0682   92.3619    9.9162 C.ar    1  UNL1       -0.0003
     51 C          68.4405   93.7896    9.6465 C.ar    1  UNL1       -0.0000
     52 C          67.3757   94.8447    9.5903 C.ar    1  UNL1       -0.0003
     53 C          65.9385   94.4719    9.8038 C.ar    1  UNL1       -0.0042
@<TRIPOS>BOND
     1    19    20    1
     2    20    21    1
     3    20    14    1
     4    14    15   ar
     5    15    16   ar
     6    16    13    1
     7    13     7    1
     8     7     8    1
     9     7     9   am
    10     9    10    2
    11     9    11   am
    12     6    11    1
    13     6     2    1
    14     2     3    2
    15     2     4   am
    16     4     1    1
    17     1    25    1
    18    25    26    1
    19    27    26    1
    20    27    40    1
    21    40    41    1
    22    41    42   ar
    23    42    43   ar
    24    43    44   ar
    25    44    45   ar
    26    45    46   ar
    27    27    28    1
    28    28    29   am
    29    29    30    2
    30    29    32    1
    31    32    33    1
    32    33    34    1
    33    34    35   ar
    34    35    36   ar
    35    36    37   ar
    36    37    38   ar
    37     1    47    1
    38    47    48    1
    39    48    49   ar
    40    49    50   ar
    41    50    51   ar
    42    51    52   ar
    43    52    53   ar
    44     6    22    1
    45    22    23    1
    46    22    24    1
    47    16    17   ar
    48    17    18   ar
    49    18    14   ar
    50    46    41   ar
    51    38    34   ar
    52    53    48   ar
    53    11    12    1
    54     4     5    1
    55    28    31    1
    56    38    39    1
@<TRIPOS>MOLECULE
*****
 53 56 0 0 0
SMALL
GASTEIGER

@<TRIPOS>ATOM
      1 C          63.1191   85.9080   12.7995 C.3     1  UNL1        0.0760
      2 C          63.6719   87.9206   14.3468 C.2     1  UNL1        0.2403
      3 O          63.6011   87.0196   15.5439 O.2     1  UNL1       -0.2733
      4 N          63.4309   87.3647   12.9745 N.am    1  UNL1       -0.3043
      5 H          63.4773   87.9560   12.1887 H       1  UNL1        0.1494
      6 C          63.9837   89.3773   14.5218 C.3     1  UNL1        0.1496
      7 N          64.0770   91.3543   11.0818 N.am    1  UNL1       -0.2567
      8 C          63.1505   91.7263    9.9623 C.3     1  UNL1        0.1168
      9 C          63.5671   90.5518   12.2420 C.2     1  UNL1        0.3046
     10 O          62.1308   90.1213   12.2828 O.2     1  UNL1       -0.2526
     11 N          64.4936   90.1798   13.3615 N.am    1  UNL1       -0.2824
     12 H          65.4363   90.4623   13.3348 H       1  UNL1        0.1514
     13 C          65.5133   91.7847   11.0411 C.3     1  UNL1        0.1413
     14 C          67.2434   93.2179   14.2063 C.ar    1  UNL1        0.0875
     15 N          66.8706   92.0610   13.3273 N.ar    1  UNL1       -0.2453
     16 C          66.0855   92.5952   12.1662 C.ar    1  UNL1        0.0858
     17 C          65.9732   94.0823   12.3275 C.ar    1  UNL1        0.0530
     18 S          66.6888   94.4672   13.5884 S.2     1  UNL1       -0.0705
     19 C          68.8314   94.3220   15.9411 C.3     1  UNL1        0.0069
     20 C          68.0324   93.1393   15.4796 C.3     1  UNL1        0.0465
     21 C          68.0224   91.8782   16.2916 C.3     1  UNL1        0.0069
     22 C          63.7856   90.0316   15.8569 C.3     1  UNL1        0.0270
     23 C          63.1184   89.2786   16.9695 C.3     1  UNL1        0.0022
     24 C          64.2548   91.4388   16.0794 C.3     1  UNL1        0.0022
     25 C          62.0088   85.4832   11.8847 C.3     1  UNL1        0.0216
     26 C          61.2428   86.5120   11.1071 C.3     1  UNL1        0.0217
     27 C          61.7349   86.9545    9.7609 C.3     1  UNL1        0.0792
     28 N          61.2414   88.2407    9.1676 N.am    1  UNL1       -0.2720
     29 C          59.8773   88.3057    8.5469 C.2     1  UNL1        0.4020
     30 O          59.0068   87.0845    8.5195 O.2     1  UNL1       -0.2264
     31 H          61.8127   89.0423    9.1856 H       1  UNL1        0.1527
     32 O          59.3838   89.5920    7.9536 O.3     1  UNL1       -0.4280
     33 C          58.7358   89.5940    6.6008 C.3     1  UNL1        0.2550
     34 C          59.0564   90.6802    5.6172 C.ar    1  UNL1        0.0986
     35 C          58.0614   91.5574    4.9170 C.ar    1  UNL1        0.1168
     36 N          58.8183   92.4993    4.0282 N.ar    1  UNL1       -0.2228
     37 C          60.2812   92.2041    4.1791 C.ar    1  UNL1        0.1749
     38 N          60.4284   91.0798    5.1612 N.ar    1  UNL1       -0.3353
     39 H          61.2765   90.6753    5.4548 H       1  UNL1        0.1673
     40 C          62.7204   86.1107    9.0081 C.3     1  UNL1        0.0460
     41 C          62.2965   85.3970    7.7587 C.ar    1  UNL1       -0.0205
     42 C          60.8385   85.2296    7.4485 C.ar    1  UNL1       -0.0042
     43 C          60.4147   84.5159    6.1992 C.ar    1  UNL1       -0.0003
     44 C          61.4488   83.9696    5.2600 C.ar    1  UNL1       -0.0000
     45 C          62.9068   84.1370    5.5701 C.ar    1  UNL1       -0.0003
     46 C          63.3306   84.8507    6.8195 C.ar    1  UNL1       -0.0042
     47 C          63.9176   84.8759   13.5394 C.3     1  UNL1        0.0459
     48 C          63.4859   83.4395   13.5221 C.ar    1  UNL1       -0.0205
     49 C          64.1142   82.4791   12.5564 C.ar    1  UNL1       -0.0042
     50 C          63.6825   81.0426   12.5391 C.ar    1  UNL1       -0.0003
     51 C          62.6225   80.5666   13.4877 C.ar    1  UNL1       -0.0000
     52 C          61.9942   81.5271   14.4536 C.ar    1  UNL1       -0.0003
     53 C          62.4259   82.9635   14.4708 C.ar    1  UNL1       -0.0042
@<TRIPOS>BOND
     1    19    20    1
     2    20    21    1
     3    20    14    1
     4    14    15   ar
     5    15    16   ar
     6    16    13    1
     7    13     7    1
     8     7     8    1
     9     7     9   am
    10     9    10    2
    11     9    11   am
    12     6    11    1
    13     6     2    1
    14     2     3    2
    15     2     4   am
    16     4     1    1
    17     1    25    1
    18    25    26    1
    19    27    26    1
    20    27    40    1
    21    40    41    1
    22    41    42   ar
    23    42    43   ar
    24    43    44   ar
    25    44    45   ar
    26    45    46   ar
    27    27    28    1
    28    28    29   am
    29    29    30    2
    30    29    32    1
    31    32    33    1
    32    33    34    1
    33    34    35   ar
    34    35    36   ar
    35    36    37   ar
    36    37    38   ar
    37     1    47    1
    38    47    48    1
    39    48    49   ar
    40    49    50   ar
    41    50    51   ar
    42    51    52   ar
    43    52    53   ar
    44     6    22    1
    45    22    23    1
    46    22    24    1
    47    16    17   ar
    48    17    18   ar
    49    18    14   ar
    50    46    41   ar
    51    38    34   ar
    52    53    48   ar
    53    11    12    1
    54     4     5    1
    55    28    31    1
    56    38    39    1
@<TRIPOS>MOLECULE
*****
 53 56 0 0 0
SMALL
GASTEIGER

@<TRIPOS>ATOM
      1 C          63.1087   85.3522   12.9153 C.3     1  UNL1        0.0760
      2 C          64.0474   87.2200   14.4581 C.2     1  UNL1        0.2403
      3 O          65.0167   86.2419   15.0526 O.2     1  UNL1       -0.2733
      4 N          63.0934   86.7752   13.3894 N.am    1  UNL1       -0.3043
      5 H          62.4572   87.4173   12.9991 H       1  UNL1        0.1494
      6 C          64.0321   88.6431   14.9322 C.3     1  UNL1        0.1496
      7 N          64.2619   91.2547   11.9528 N.am    1  UNL1       -0.2567
      8 C          63.4666   91.6807   10.7545 C.3     1  UNL1        0.1168
      9 C          63.7494   90.1619   12.8433 C.2     1  UNL1        0.3046
     10 O          62.4413   89.4952   12.5356 O.2     1  UNL1       -0.2526
     11 N          64.5447   89.7359   14.0416 N.am    1  UNL1       -0.2824
     12 H          65.4032   90.1735   14.2436 H       1  UNL1        0.1514
     13 C          65.5699   91.9214   12.2605 C.3     1  UNL1        0.1413
     14 C          66.4142   94.9459    9.9791 C.ar    1  UNL1        0.0875
     15 N          66.0869   93.4935   10.1614 N.ar    1  UNL1       -0.2453
     16 C          65.9068   93.2395   11.6287 C.ar    1  UNL1        0.0858
     17 C          66.1229   94.5350   12.3533 C.ar    1  UNL1        0.0530
     18 S          66.4364   95.5897   11.3339 S.2     1  UNL1       -0.0705
     19 C          65.8874   96.8555    8.2979 C.3     1  UNL1        0.0069
     20 C          66.6737   95.6340    8.6717 C.3     1  UNL1        0.0465
     21 C          67.7194   95.1005    7.7381 C.3     1  UNL1        0.0069
     22 C          63.5041   88.9733   16.2968 C.3     1  UNL1        0.0270
     23 C          63.0053   87.8789   17.1931 C.3     1  UNL1        0.0022
     24 C          63.4749   90.3980   16.7650 C.3     1  UNL1        0.0022
     25 C          62.5413   85.0033   11.5713 C.3     1  UNL1        0.0216
     26 C          61.6761   85.9891   10.8437 C.3     1  UNL1        0.0217
     27 C          62.0719   86.4706    9.4792 C.3     1  UNL1        0.0792
     28 N          61.5700   87.7912    8.9752 N.am    1  UNL1       -0.2720
     29 C          60.1549   87.9220    8.4950 C.2     1  UNL1        0.4020
     30 O          59.2418   86.7322    8.5189 O.2     1  UNL1       -0.2264
     31 H          62.1693   88.5721    8.9595 H       1  UNL1        0.1527
     32 O          59.6530   89.2426    7.9909 O.3     1  UNL1       -0.4280
     33 C          58.8592   89.3076    6.7199 C.3     1  UNL1        0.2550
     34 C          59.0352   90.4667    5.7842 C.ar    1  UNL1        0.0986
     35 C          57.9350   91.2967    5.1920 C.ar    1  UNL1        0.1168
     36 N          58.5621   92.3423    4.3181 N.ar    1  UNL1       -0.2228
     37 C          60.0499   92.1584    4.3702 C.ar    1  UNL1        0.1749
     38 N          60.3422   90.9993    5.2763 N.ar    1  UNL1       -0.3353
     39 H          61.2352   90.6494    5.4986 H       1  UNL1        0.1673
     40 C          62.9695   85.6314    8.6190 C.3     1  UNL1        0.0460
     41 C          62.4500   85.0476    7.3386 C.ar    1  UNL1       -0.0205
     42 C          60.9972   84.6976    7.2090 C.ar    1  UNL1       -0.0042
     43 C          60.4778   84.1138    5.9286 C.ar    1  UNL1       -0.0003
     44 C          61.4111   83.8801    4.7779 C.ar    1  UNL1       -0.0000
     45 C          62.8639   84.2302    4.9075 C.ar    1  UNL1       -0.0003
     46 C          63.3833   84.8139    6.1878 C.ar    1  UNL1       -0.0042
     47 C          63.6916   84.2781   13.7852 C.3     1  UNL1        0.0459
     48 C          63.1660   82.8758   13.6992 C.ar    1  UNL1       -0.0205
     49 C          63.9181   81.8396   12.9179 C.ar    1  UNL1       -0.0042
     50 C          63.3924   80.4373   12.8319 C.ar    1  UNL1       -0.0003
     51 C          62.1147   80.0713   13.5272 C.ar    1  UNL1       -0.0000
     52 C          61.3625   81.1076   14.3085 C.ar    1  UNL1       -0.0003
     53 C          61.8882   82.5099   14.3945 C.ar    1  UNL1       -0.0042
@<TRIPOS>BOND
     1    19    20    1
     2    20    21    1
     3    20    14    1
     4    14    15   ar
     5    15    16   ar
     6    16    13    1
     7    13     7    1
     8     7     8    1
     9     7     9   am
    10     9    10    2
    11     9    11   am
    12     6    11    1
    13     6     2    1
    14     2     3    2
    15     2     4   am
    16     4     1    1
    17     1    25    1
    18    25    26    1
    19    27    26    1
    20    27    40    1
    21    40    41    1
    22    41    42   ar
    23    42    43   ar
    24    43    44   ar
    25    44    45   ar
    26    45    46   ar
    27    27    28    1
    28    28    29   am
    29    29    30    2
    30    29    32    1
    31    32    33    1
    32    33    34    1
    33    34    35   ar
    34    35    36   ar
    35    36    37   ar
    36    37    38   ar
    37     1    47    1
    38    47    48    1
    39    48    49   ar
    40    49    50   ar
    41    50    51   ar
    42    51    52   ar
    43    52    53   ar
    44     6    22    1
    45    22    23    1
    46    22    24    1
    47    16    17   ar
    48    17    18   ar
    49    18    14   ar
    50    46    41   ar
    51    38    34   ar
    52    53    48   ar
    53    11    12    1
    54     4     5    1
    55    28    31    1
    56    38    39    1
@<TRIPOS>MOLECULE
*****
 53 56 0 0 0
SMALL
GASTEIGER

@<TRIPOS>ATOM
      1 C          62.9363   85.9221   11.3898 C.3     1  UNL1        0.0760
      2 C          61.4840   88.0745   11.4798 C.2     1  UNL1        0.2403
      3 O          60.2822   87.2489   11.8315 O.2     1  UNL1       -0.2733
      4 N          62.8112   87.4111   11.2589 N.am    1  UNL1       -0.3043
      5 H          63.6000   87.9530   11.0281 H       1  UNL1        0.1494
      6 C          61.3589   89.5635   11.3489 C.3     1  UNL1        0.1496
      7 N          64.3644   92.1546   11.4092 N.am    1  UNL1       -0.2567
      8 C          65.1855   92.9612   10.4474 C.3     1  UNL1        0.1168
      9 C          63.2722   91.2624   10.8982 C.2     1  UNL1        0.3046
     10 O          63.0013   91.1767    9.4253 O.2     1  UNL1       -0.2526
     11 N          62.4510   90.4558   11.8600 N.am    1  UNL1       -0.2824
     12 H          62.6289   90.5120   12.8267 H       1  UNL1        0.1514
     13 C          64.6353   92.2402   12.8820 C.3     1  UNL1        0.1413
     14 C          67.9907   92.6463   14.7904 C.ar    1  UNL1        0.0875
     15 N          66.5031   92.8188   14.7046 N.ar    1  UNL1       -0.2453
     16 C          66.0485   92.2714   13.3841 C.ar    1  UNL1        0.0858
     17 C          67.2551   91.7606   12.6539 C.ar    1  UNL1        0.0530
     18 S          68.4554   91.9923   13.5230 S.2     1  UNL1       -0.0705
     19 C          69.4278   92.0149   16.8608 C.3     1  UNL1        0.0069
     20 C          68.8608   93.0559   15.9416 C.3     1  UNL1        0.0465
     21 C          69.1640   94.5065   16.1736 C.3     1  UNL1        0.0069
     22 C          60.1416   90.1603   10.7070 C.3     1  UNL1        0.0270
     23 C          59.1780   90.9639   11.5289 C.3     1  UNL1        0.0022
     24 C          59.8881   89.9535    9.2432 C.3     1  UNL1        0.0022
     25 C          62.8230   85.2756   12.7386 C.3     1  UNL1        0.0216
     26 C          64.0607   84.8639   13.4792 C.3     1  UNL1        0.0217
     27 C          63.9468   84.0739   14.7493 C.3     1  UNL1        0.0792
     28 N          63.8019   84.7829   16.0632 N.am    1  UNL1       -0.2720
     29 C          62.4558   85.2754   16.5052 C.2     1  UNL1        0.4020
     30 O          61.2545   85.0589   15.6333 O.2     1  UNL1       -0.2264
     31 H          64.5904   84.9251   16.6354 H       1  UNL1        0.1527
     32 O          62.3109   85.9845   17.8190 O.3     1  UNL1       -0.4280
     33 C          62.8360   87.3803   17.9799 C.3     1  UNL1        0.2550
     34 C          63.1435   88.2102   16.7689 C.ar    1  UNL1        0.0986
     35 C          62.7485   89.6418   16.5576 C.ar    1  UNL1        0.1168
     36 N          63.2608   90.0706   15.2146 N.ar    1  UNL1       -0.2228
     37 C          63.9724   88.9041   14.5958 C.ar    1  UNL1        0.1749
     38 N          63.8999   87.7543   15.5564 N.ar    1  UNL1       -0.3353
     39 H          64.2817   86.8579   15.4158 H       1  UNL1        0.1673
     40 C          63.9778   82.5749   14.7054 C.3     1  UNL1        0.0460
     41 C          63.6536   81.8550   13.4300 C.ar    1  UNL1       -0.0205
     42 C          62.7550   80.6542   13.4542 C.ar    1  UNL1       -0.0042
     43 C          62.4308   79.9343   12.1788 C.ar    1  UNL1       -0.0003
     44 C          63.0051   80.4153   10.8792 C.ar    1  UNL1       -0.0000
     45 C          63.9037   81.6161   10.8551 C.ar    1  UNL1       -0.0003
     46 C          64.2279   82.3360   12.1305 C.ar    1  UNL1       -0.0042
     47 C          63.1748   85.0796   10.1719 C.3     1  UNL1        0.0459
     48 C          62.2950   85.2367    8.9672 C.ar    1  UNL1       -0.0205
     49 C          60.9720   85.9328    9.0904 C.ar    1  UNL1       -0.0042
     50 C          60.0922   86.0899    7.8857 C.ar    1  UNL1       -0.0003
     51 C          60.5353   85.5509    6.5579 C.ar    1  UNL1       -0.0000
     52 C          61.8583   84.8547    6.4347 C.ar    1  UNL1       -0.0003
     53 C          62.7381   84.6976    7.6393 C.ar    1  UNL1       -0.0042
@<TRIPOS>BOND
     1    19    20    1
     2    20    21    1
     3    20    14    1
     4    14    15   ar
     5    15    16   ar
     6    16    13    1
     7    13     7    1
     8     7     8    1
     9     7     9   am
    10     9    10    2
    11     9    11   am
    12     6    11    1
    13     6     2    1
    14     2     3    2
    15     2     4   am
    16     4     1    1
    17     1    25    1
    18    25    26    1
    19    27    26    1
    20    27    40    1
    21    40    41    1
    22    41    42   ar
    23    42    43   ar
    24    43    44   ar
    25    44    45   ar
    26    45    46   ar
    27    27    28    1
    28    28    29   am
    29    29    30    2
    30    29    32    1
    31    32    33    1
    32    33    34    1
    33    34    35   ar
    34    35    36   ar
    35    36    37   ar
    36    37    38   ar
    37     1    47    1
    38    47    48    1
    39    48    49   ar
    40    49    50   ar
    41    50    51   ar
    42    51    52   ar
    43    52    53   ar
    44     6    22    1
    45    22    23    1
    46    22    24    1
    47    16    17   ar
    48    17    18   ar
    49    18    14   ar
    50    46    41   ar
    51    38    34   ar
    52    53    48   ar
    53    11    12    1
    54     4     5    1
    55    28    31    1
    56    38    39    1
@<TRIPOS>MOLECULE
*****
 53 56 0 0 0
SMALL
GASTEIGER

@<TRIPOS>ATOM
      1 C          61.8844   88.7240   11.1600 C.3     1  UNL1        0.0760
      2 C          63.5253   90.2476   12.4776 C.2     1  UNL1        0.2403
      3 O          63.9178   90.9294   11.2005 O.2     1  UNL1       -0.2733
      4 N          62.5085   89.1449   12.4574 N.am    1  UNL1       -0.3043
      5 H          62.2509   88.6975   13.2957 H       1  UNL1        0.1494
      6 C          64.1494   90.6686   13.7750 C.3     1  UNL1        0.1496
      7 N          67.1293   93.1932   14.4799 N.am    1  UNL1       -0.2567
      8 C          68.5211   93.1768   15.0388 C.3     1  UNL1        0.1168
      9 C          66.3353   91.9227   14.4069 C.2     1  UNL1        0.3046
     10 O          66.9332   90.6357   14.8929 O.2     1  UNL1       -0.2526
     11 N          64.9434   91.9392   13.8480 N.am    1  UNL1       -0.2824
     12 H          64.5510   92.7838   13.5290 H       1  UNL1        0.1514
     13 C          66.5314   94.4802   13.9938 C.3     1  UNL1        0.1413
     14 C          67.0467   94.7341   10.1551 C.ar    1  UNL1        0.0875
     15 N          67.1721   93.9821   11.4469 N.ar    1  UNL1       -0.2453
     16 C          66.6080   94.8408   12.5398 C.ar    1  UNL1        0.0858
     17 C          66.1338   96.1235   11.9234 C.ar    1  UNL1        0.0530
     18 S          66.4050   96.0576   10.4496 S.2     1  UNL1       -0.0705
     19 C          67.1384   95.0334    7.5760 C.3     1  UNL1        0.0069
     20 C          67.4858   94.2480    8.8057 C.3     1  UNL1        0.0465
     21 C          68.2724   92.9764    8.6861 C.3     1  UNL1        0.0069
     22 C          63.9796   89.8189   14.9995 C.3     1  UNL1        0.0270
     23 C          63.4998   90.4358   16.2798 C.3     1  UNL1        0.0022
     24 C          64.2897   88.3524   14.9436 C.3     1  UNL1        0.0022
     25 C          62.3123   87.4460   10.5016 C.3     1  UNL1        0.0216
     26 C          62.0728   86.1330   11.1862 C.3     1  UNL1        0.0217
     27 C          62.6925   84.8797   10.6426 C.3     1  UNL1        0.0792
     28 N          62.5705   83.5922   11.4024 N.am    1  UNL1       -0.2720
     29 C          63.7633   82.6954   11.5549 C.2     1  UNL1        0.4020
     30 O          65.0780   83.0862   10.9475 O.2     1  UNL1       -0.2264
     31 H          61.7077   83.3357   11.8011 H       1  UNL1        0.1527
     32 O          63.6414   81.4079   12.3147 O.3     1  UNL1       -0.4280
     33 C          63.5554   81.4260   13.8121 C.3     1  UNL1        0.2550
     34 C          63.3862   82.7277   14.5380 C.ar    1  UNL1        0.0986
     35 C          62.0818   83.3520   14.9363 C.ar    1  UNL1        0.1168
     36 N          62.3811   84.6438   15.6375 N.ar    1  UNL1       -0.2228
     37 C          63.8706   84.8178   15.6726 C.ar    1  UNL1        0.1749
     38 N          64.4917   83.6336   14.9931 N.ar    1  UNL1       -0.3353
     39 H          65.4558   83.4782   14.8678 H       1  UNL1        0.1673
     40 C          63.4341   84.9141    9.3392 C.3     1  UNL1        0.0460
     41 C          62.6830   84.8008    8.0457 C.ar    1  UNL1       -0.0205
     42 C          61.2001   85.0247    8.0174 C.ar    1  UNL1       -0.0042
     43 C          60.4491   84.9114    6.7239 C.ar    1  UNL1       -0.0003
     44 C          61.1810   84.5742    5.4588 C.ar    1  UNL1       -0.0000
     45 C          62.6639   84.3503    5.4871 C.ar    1  UNL1       -0.0003
     46 C          63.4149   84.4636    6.7806 C.ar    1  UNL1       -0.0042
     47 C          60.8322   89.5812   10.5210 C.3     1  UNL1        0.0459
     48 C          60.1245   89.1051    9.2871 C.ar    1  UNL1       -0.0205
     49 C          59.3811   87.8024    9.3044 C.ar    1  UNL1       -0.0042
     50 C          58.6733   87.3263    8.0706 C.ar    1  UNL1       -0.0003
     51 C          58.7089   88.1529    6.8194 C.ar    1  UNL1       -0.0000
     52 C          59.4523   89.4556    6.8021 C.ar    1  UNL1       -0.0003
     53 C          60.1601   89.9317    8.0359 C.ar    1  UNL1       -0.0042
@<TRIPOS>BOND
     1    19    20    1
     2    20    21    1
     3    20    14    1
     4    14    15   ar
     5    15    16   ar
     6    16    13    1
     7    13     7    1
     8     7     8    1
     9     7     9   am
    10     9    10    2
    11     9    11   am
    12     6    11    1
    13     6     2    1
    14     2     3    2
    15     2     4   am
    16     4     1    1
    17     1    25    1
    18    25    26    1
    19    27    26    1
    20    27    40    1
    21    40    41    1
    22    41    42   ar
    23    42    43   ar
    24    43    44   ar
    25    44    45   ar
    26    45    46   ar
    27    27    28    1
    28    28    29   am
    29    29    30    2
    30    29    32    1
    31    32    33    1
    32    33    34    1
    33    34    35   ar
    34    35    36   ar
    35    36    37   ar
    36    37    38   ar
    37     1    47    1
    38    47    48    1
    39    48    49   ar
    40    49    50   ar
    41    50    51   ar
    42    51    52   ar
    43    52    53   ar
    44     6    22    1
    45    22    23    1
    46    22    24    1
    47    16    17   ar
    48    17    18   ar
    49    18    14   ar
    50    46    41   ar
    51    38    34   ar
    52    53    48   ar
    53    11    12    1
    54     4     5    1
    55    28    31    1
    56    38    39    1
@<TRIPOS>MOLECULE
*****
 53 56 0 0 0
SMALL
GASTEIGER

@<TRIPOS>ATOM
      1 C          62.5168   88.7306   11.2873 C.3     1  UNL1        0.0760
      2 C          60.6722   88.4235    9.4835 C.2     1  UNL1        0.2403
      3 O          59.6166   88.6577   10.5231 O.2     1  UNL1       -0.2733
      4 N          62.1224   88.4600    9.8656 N.am    1  UNL1       -0.3043
      5 H          62.8152   88.3063    9.1833 H       1  UNL1        0.1494
      6 C          60.2778   88.1528    8.0618 C.3     1  UNL1        0.1496
      7 N          59.2730   90.8993    5.3791 N.am    1  UNL1       -0.2567
      8 C          58.0367   91.4769    4.7560 C.3     1  UNL1        0.1168
      9 C          59.1573   89.8149    6.4089 C.2     1  UNL1        0.3046
     10 O          57.8054   89.3079    6.8157 O.2     1  UNL1       -0.2526
     11 N          60.3935   89.2373    7.0320 N.am    1  UNL1       -0.2824
     12 H          61.2808   89.5700    6.7650 H       1  UNL1        0.1514
     13 C          60.6248   91.4062    4.9723 C.3     1  UNL1        0.1413
     14 C          61.6776   93.0855    1.6351 C.ar    1  UNL1        0.0875
     15 N          61.9384   92.1264    2.7585 N.ar    1  UNL1       -0.2453
     16 C          60.7795   92.1986    3.7081 C.ar    1  UNL1        0.0858
     17 C          59.8025   93.2024    3.1715 C.ar    1  UNL1        0.0530
     18 S          60.3575   93.7505    1.8903 S.2     1  UNL1       -0.0705
     19 C          62.0250   93.2945   -0.9312 C.3     1  UNL1        0.0069
     20 C          62.5787   93.3357    0.4622 C.3     1  UNL1        0.0465
     21 C          64.0334   93.6271    0.6829 C.3     1  UNL1        0.0069
     22 C          59.7677   86.7978    7.6700 C.3     1  UNL1        0.0270
     23 C          60.7188   85.7584    7.1551 C.3     1  UNL1        0.0022
     24 C          58.3065   86.4821    7.7932 C.3     1  UNL1        0.0022
     25 C          63.0088   87.6106   12.1553 C.3     1  UNL1        0.0216
     26 C          62.8112   86.1870   11.7263 C.3     1  UNL1        0.0217
     27 C          63.1203   85.0677   12.6760 C.3     1  UNL1        0.0792
     28 N          62.5289   85.0690   14.0545 N.am    1  UNL1       -0.2720
     29 C          63.4265   85.1134   15.2556 C.2     1  UNL1        0.4020
     30 O          64.9153   85.1565   15.0781 O.2     1  UNL1       -0.2264
     31 H          61.5518   85.0406   14.1710 H       1  UNL1        0.1527
     32 O          62.8352   85.1147   16.6341 O.3     1  UNL1       -0.4280
     33 C          62.8440   86.3714   17.4528 C.3     1  UNL1        0.2550
     34 C          63.1586   87.6869   16.8043 C.ar    1  UNL1        0.0986
     35 C          62.7993   89.0416   17.3386 C.ar    1  UNL1        0.1168
     36 N          63.3063   90.0706   16.3720 N.ar    1  UNL1       -0.2228
     37 C          63.9790   89.3517   15.2404 C.ar    1  UNL1        0.1749
     38 N          63.8877   87.8785   15.5075 N.ar    1  UNL1       -0.3353
     39 H          64.2438   87.1630   14.9326 H       1  UNL1        0.1673
     40 C          64.0206   83.9472   12.2471 C.3     1  UNL1        0.0460
     41 C          63.5274   82.5312   12.2882 C.ar    1  UNL1       -0.0205
     42 C          63.1936   81.8911   13.6030 C.ar    1  UNL1       -0.0042
     43 C          62.7004   80.4751   13.6440 C.ar    1  UNL1       -0.0003
     44 C          62.5411   79.6992   12.3702 C.ar    1  UNL1       -0.0000
     45 C          62.8749   80.3393   11.0554 C.ar    1  UNL1       -0.0003
     46 C          63.3681   81.7553   11.0144 C.ar    1  UNL1       -0.0042
     47 C          62.4192   90.1213   11.8409 C.3     1  UNL1        0.0459
     48 C          63.6028   91.0403   11.7731 C.ar    1  UNL1       -0.0205
     49 C          64.4029   91.3252   13.0095 C.ar    1  UNL1       -0.0042
     50 C          65.5865   92.2441   12.9417 C.ar    1  UNL1       -0.0003
     51 C          65.9699   92.8783   11.6376 C.ar    1  UNL1       -0.0000
     52 C          65.1697   92.5935   10.4011 C.ar    1  UNL1       -0.0003
     53 C          63.9862   91.6745   10.4689 C.ar    1  UNL1       -0.0042
@<TRIPOS>BOND
     1    19    20    1
     2    20    21    1
     3    20    14    1
     4    14    15   ar
     5    15    16   ar
     6    16    13    1
     7    13     7    1
     8     7     8    1
     9     7     9   am
    10     9    10    2
    11     9    11   am
    12     6    11    1
    13     6     2    1
    14     2     3    2
    15     2     4   am
    16     4     1    1
    17     1    25    1
    18    25    26    1
    19    27    26    1
    20    27    40    1
    21    40    41    1
    22    41    42   ar
    23    42    43   ar
    24    43    44   ar
    25    44    45   ar
    26    45    46   ar
    27    27    28    1
    28    28    29   am
    29    29    30    2
    30    29    32    1
    31    32    33    1
    32    33    34    1
    33    34    35   ar
    34    35    36   ar
    35    36    37   ar
    36    37    38   ar
    37     1    47    1
    38    47    48    1
    39    48    49   ar
    40    49    50   ar
    41    50    51   ar
    42    51    52   ar
    43    52    53   ar
    44     6    22    1
    45    22    23    1
    46    22    24    1
    47    16    17   ar
    48    17    18   ar
    49    18    14   ar
    50    46    41   ar
    51    38    34   ar
    52    53    48   ar
    53    11    12    1
    54     4     5    1
    55    28    31    1
    56    38    39    1
@<TRIPOS>MOLECULE
*****
 53 56 0 0 0
SMALL
GASTEIGER

@<TRIPOS>ATOM
      1 C          63.1446   90.4264   13.2948 C.3     1  UNL1        0.0760
      2 C          63.8596   88.4173   14.7790 C.2     1  UNL1        0.2403
      3 O          65.2992   88.6966   14.4635 O.2     1  UNL1       -0.2733
      4 N          62.7822   89.2822   14.1946 N.am    1  UNL1       -0.3043
      5 H          61.8374   89.0989   14.4017 H       1  UNL1        0.1494
      6 C          63.4972   87.2732   15.6788 C.3     1  UNL1        0.1496
      7 N          63.5674   84.1896   13.1814 N.am    1  UNL1       -0.2567
      8 C          63.4941   83.9225   11.7072 C.3     1  UNL1        0.1168
      9 C          63.4957   85.5978   13.6930 C.2     1  UNL1        0.3046
     10 O          63.3505   86.7390   12.7304 O.2     1  UNL1       -0.2526
     11 N          63.5690   85.8649   15.1672 N.am    1  UNL1       -0.2824
     12 H          63.6643   85.1159   15.7990 H       1  UNL1        0.1514
     13 C          63.7125   83.0485   14.1441 C.3     1  UNL1        0.1413
     14 C          60.7913   80.4930   14.1009 C.ar    1  UNL1        0.0875
     15 N          61.3108   81.8858   14.3017 N.ar    1  UNL1       -0.2453
     16 C          62.7900   81.8691   14.0538 C.ar    1  UNL1        0.0858
     17 C          63.1848   80.4659   13.6997 C.ar    1  UNL1        0.0530
     18 S          61.9496   79.6154   13.7287 S.2     1  UNL1       -0.0705
     19 C          58.2532   81.0471   14.0717 C.3     1  UNL1        0.0069
     20 C          59.3642   80.0546   14.2465 C.3     1  UNL1        0.0465
     21 C          59.0481   78.6238   14.5669 C.3     1  UNL1        0.0069
     22 C          63.0632   87.5373   17.0901 C.3     1  UNL1        0.0270
     23 C          63.0474   88.9405   17.6198 C.3     1  UNL1        0.0022
     24 C          62.6448   86.3981   17.9716 C.3     1  UNL1        0.0022
     25 C          62.6185   90.4721   11.8909 C.3     1  UNL1        0.0216
     26 C          63.1979   89.5687   10.8431 C.3     1  UNL1        0.0217
     27 C          62.2915   88.7327    9.9889 C.3     1  UNL1        0.0792
     28 N          61.4151   89.3865    8.9619 N.am    1  UNL1       -0.2720
     29 C          59.9230   89.3332    9.1058 C.2     1  UNL1        0.4020
     30 O          59.3072   88.6262   10.2767 O.2     1  UNL1       -0.2264
     31 H          61.8193   89.8505    8.1934 H       1  UNL1        0.1527
     32 O          59.0466   89.9869    8.0789 O.3     1  UNL1       -0.4280
     33 C          59.1872   89.6216    6.6309 C.3     1  UNL1        0.2550
     34 C          59.2626   90.6986    5.5895 C.ar    1  UNL1        0.0986
     35 C          58.0961   91.4129    4.9738 C.ar    1  UNL1        0.1168
     36 N          58.6303   92.4061    3.9848 N.ar    1  UNL1       -0.2228
     37 C          60.1269   92.3058    3.9893 C.ar    1  UNL1        0.1749
     38 N          60.5177   91.2504    4.9810 N.ar    1  UNL1       -0.3353
     39 H          61.4366   90.9693    5.1950 H       1  UNL1        0.1673
     40 C          62.2613   87.2430   10.1618 C.3     1  UNL1        0.0460
     41 C          62.0211   86.3552    8.9768 C.ar    1  UNL1       -0.0205
     42 C          63.1586   85.5861    8.3731 C.ar    1  UNL1       -0.0042
     43 C          62.9183   84.6983    7.1882 C.ar    1  UNL1       -0.0003
     44 C          61.5406   84.5796    6.6070 C.ar    1  UNL1       -0.0000
     45 C          60.4031   85.3487    7.2108 C.ar    1  UNL1       -0.0003
     46 C          60.6434   86.2365    8.3957 C.ar    1  UNL1       -0.0042
     47 C          64.0331   91.5248   13.7990 C.3     1  UNL1        0.0459
     48 C          65.3277   91.8217   13.1020 C.ar    1  UNL1       -0.0205
     49 C          65.3199   92.3408   11.6947 C.ar    1  UNL1       -0.0042
     50 C          66.6145   92.6378   10.9977 C.ar    1  UNL1       -0.0003
     51 C          67.9168   92.4157   11.7079 C.ar    1  UNL1       -0.0000
     52 C          67.9247   91.8966   13.1153 C.ar    1  UNL1       -0.0003
     53 C          66.6301   91.5996   13.8123 C.ar    1  UNL1       -0.0042
@<TRIPOS>BOND
     1    19    20    1
     2    20    21    1
     3    20    14    1
     4    14    15   ar
     5    15    16   ar
     6    16    13    1
     7    13     7    1
     8     7     8    1
     9     7     9   am
    10     9    10    2
    11     9    11   am
    12     6    11    1
    13     6     2    1
    14     2     3    2
    15     2     4   am
    16     4     1    1
    17     1    25    1
    18    25    26    1
    19    27    26    1
    20    27    40    1
    21    40    41    1
    22    41    42   ar
    23    42    43   ar
    24    43    44   ar
    25    44    45   ar
    26    45    46   ar
    27    27    28    1
    28    28    29   am
    29    29    30    2
    30    29    32    1
    31    32    33    1
    32    33    34    1
    33    34    35   ar
    34    35    36   ar
    35    36    37   ar
    36    37    38   ar
    37     1    47    1
    38    47    48    1
    39    48    49   ar
    40    49    50   ar
    41    50    51   ar
    42    51    52   ar
    43    52    53   ar
    44     6    22    1
    45    22    23    1
    46    22    24    1
    47    16    17   ar
    48    17    18   ar
    49    18    14   ar
    50    46    41   ar
    51    38    34   ar
    52    53    48   ar
    53    11    12    1
    54     4     5    1
    55    28    31    1
    56    38    39    1
@<TRIPOS>MOLECULE
*****
 53 56 0 0 0
SMALL
GASTEIGER

@<TRIPOS>ATOM
      1 C          63.3193   87.9937   13.0733 C.3     1  UNL1        0.0760
      2 C          63.2315   85.5052   12.3316 C.2     1  UNL1        0.2403
      3 O          64.1624   85.1392   13.4493 O.2     1  UNL1       -0.2733
      4 N          62.8099   86.9325   12.1435 N.am    1  UNL1       -0.3043
      5 H          62.1990   87.1727   11.4098 H       1  UNL1        0.1494
      6 C          62.7222   84.4441   11.4018 C.3     1  UNL1        0.1496
      7 N          61.8424   85.0707    7.5830 N.am    1  UNL1       -0.2567
      8 C          62.4811   84.9251    6.2336 C.3     1  UNL1        0.1168
      9 C          62.6016   84.6846    8.8176 C.2     1  UNL1        0.3046
     10 O          63.9995   84.1529    8.7030 O.2     1  UNL1       -0.2526
     11 N          61.9629   84.8302   10.1670 N.am    1  UNL1       -0.2824
     12 H          61.0454   85.1792   10.2423 H       1  UNL1        0.1514
     13 C          60.4445   85.6024    7.6977 C.3     1  UNL1        0.1413
     14 C          59.8959   88.8022    9.8251 C.ar    1  UNL1        0.0875
     15 N          60.1557   87.3287    9.7180 N.ar    1  UNL1       -0.2453
     16 C          60.2068   86.9718    8.2620 C.ar    1  UNL1        0.0858
     17 C          59.9786   88.2246    7.4693 C.ar    1  UNL1        0.0530
     18 S          59.7864   89.3559    8.4353 S.2     1  UNL1       -0.0705
     19 C          59.1641   88.9457   12.3139 C.3     1  UNL1        0.0069
     20 C          59.7680   89.5846   11.0985 C.3     1  UNL1        0.0465
     21 C          60.2439   91.0059   11.1565 C.3     1  UNL1        0.0069
     22 C          62.9720   82.9968   11.7067 C.3     1  UNL1        0.0270
     23 C          63.9522   82.2152   10.8831 C.3     1  UNL1        0.0022
     24 C          62.2418   82.3312   12.8352 C.3     1  UNL1        0.0022
     25 C          62.8756   89.4163   12.9026 C.3     1  UNL1        0.0216
     26 C          63.7602   90.3977   12.1926 C.3     1  UNL1        0.0217
     27 C          64.6027   91.3556   12.9818 C.3     1  UNL1        0.0792
     28 N          64.6777   92.7979   12.5766 N.am    1  UNL1       -0.2720
     29 C          65.3492   93.1820   11.2914 C.2     1  UNL1        0.4020
     30 O          65.9455   92.1237   10.4114 O.2     1  UNL1       -0.2264
     31 H          64.2863   93.4925   13.1542 H       1  UNL1        0.1527
     32 O          65.4242   94.6243   10.8862 O.3     1  UNL1       -0.4280
     33 C          66.6528   95.1487   10.2041 C.3     1  UNL1        0.2550
     34 C          67.5721   94.2059    9.4858 C.ar    1  UNL1        0.0986
     35 C          67.7172   94.0778    7.9984 C.ar    1  UNL1        0.1168
     36 N          68.7426   93.0184    7.7221 N.ar    1  UNL1       -0.2228
     37 C          69.2312   92.4917    9.0389 C.ar    1  UNL1        0.1749
     38 N          68.5078   93.2256   10.1289 N.ar    1  UNL1       -0.3353
     39 H          68.6264   93.0881   11.0965 H       1  UNL1        0.1673
     40 C          65.3701   90.8712   14.1761 C.3     1  UNL1        0.0460
     41 C          66.5697   91.6331   14.6563 C.ar    1  UNL1       -0.0205
     42 C          66.5065   92.3961   15.9462 C.ar    1  UNL1       -0.0042
     43 C          67.7061   93.1579   16.4263 C.ar    1  UNL1       -0.0003
     44 C          68.9688   93.1568   15.6167 C.ar    1  UNL1       -0.0000
     45 C          69.0320   92.3937   14.3268 C.ar    1  UNL1       -0.0003
     46 C          67.8324   91.6319   13.8467 C.ar    1  UNL1       -0.0042
     47 C          64.2724   87.6321   14.1737 C.3     1  UNL1        0.0459
     48 C          63.7615   87.4155   15.5673 C.ar    1  UNL1       -0.0205
     49 C          63.3853   88.5911   16.4195 C.ar    1  UNL1       -0.0042
     50 C          62.8745   88.3745   17.8130 C.ar    1  UNL1       -0.0003
     51 C          62.7398   86.9822   18.3545 C.ar    1  UNL1       -0.0000
     52 C          63.1160   85.8064   17.5023 C.ar    1  UNL1       -0.0003
     53 C          63.6269   86.0230   16.1087 C.ar    1  UNL1       -0.0042
@<TRIPOS>BOND
     1    19    20    1
     2    20    21    1
     3    20    14    1
     4    14    15   ar
     5    15    16   ar
     6    16    13    1
     7    13     7    1
     8     7     8    1
     9     7     9   am
    10     9    10    2
    11     9    11   am
    12     6    11    1
    13     6     2    1
    14     2     3    2
    15     2     4   am
    16     4     1    1
    17     1    25    1
    18    25    26    1
    19    27    26    1
    20    27    40    1
    21    40    41    1
    22    41    42   ar
    23    42    43   ar
    24    43    44   ar
    25    44    45   ar
    26    45    46   ar
    27    27    28    1
    28    28    29   am
    29    29    30    2
    30    29    32    1
    31    32    33    1
    32    33    34    1
    33    34    35   ar
    34    35    36   ar
    35    36    37   ar
    36    37    38   ar
    37     1    47    1
    38    47    48    1
    39    48    49   ar
    40    49    50   ar
    41    50    51   ar
    42    51    52   ar
    43    52    53   ar
    44     6    22    1
    45    22    23    1
    46    22    24    1
    47    16    17   ar
    48    17    18   ar
    49    18    14   ar
    50    46    41   ar
    51    38    34   ar
    52    53    48   ar
    53    11    12    1
    54     4     5    1
    55    28    31    1
    56    38    39    1
@<TRIPOS>MOLECULE
*****
 53 56 0 0 0
SMALL
GASTEIGER

@<TRIPOS>ATOM
      1 C          62.6795   89.1303   11.4380 C.3     1  UNL1        0.0760
      2 C          60.8571   88.9827    9.5922 C.2     1  UNL1        0.2403
      3 O          59.8867   89.6864   10.4940 O.2     1  UNL1       -0.2733
      4 N          62.2535   88.7047   10.0642 N.am    1  UNL1       -0.3043
      5 H          62.8904   88.2429    9.4723 H       1  UNL1        0.1494
      6 C          60.4311   88.5571    8.2184 C.3     1  UNL1        0.1496
      7 N          59.0922   90.9363    5.3378 N.am    1  UNL1       -0.2567
      8 C          57.7908   91.3236    4.7004 C.3     1  UNL1        0.1168
      9 C          59.1110   89.9404    6.4594 C.2     1  UNL1        0.3046
     10 O          57.8282   89.3319    6.9436 O.2     1  UNL1       -0.2526
     11 N          60.4124   89.5530    7.0967 N.am    1  UNL1       -0.2824
     12 H          61.2543   89.9524    6.7790 H       1  UNL1        0.1514
     13 C          60.3749   91.5447    4.8537 C.3     1  UNL1        0.1413
     14 C          59.7853   93.2603    1.4222 C.ar    1  UNL1        0.0875
     15 N          59.2665   92.7020    2.7142 N.ar    1  UNL1       -0.2453
     16 C          60.4362   92.1870    3.4995 C.ar    1  UNL1        0.0858
     17 C          61.6779   92.4271    2.6929 C.ar    1  UNL1        0.0530
     18 S          61.2757   93.0904    1.4091 S.2     1  UNL1       -0.0705
     19 C          57.9759   93.0431   -0.4295 C.3     1  UNL1        0.0069
     20 C          58.9589   93.8798    0.3344 C.3     1  UNL1        0.0465
     21 C          59.1155   95.3360    0.0105 C.3     1  UNL1        0.0069
     22 C          60.0238   87.1357    7.9661 C.3     1  UNL1        0.0270
     23 C          61.0703   86.0782    7.7756 C.3     1  UNL1        0.0022
     24 C          58.5699   86.7719    7.9043 C.3     1  UNL1        0.0022
     25 C          63.0663   88.0991   12.4564 C.3     1  UNL1        0.0216
     26 C          62.9847   86.6408   12.1153 C.3     1  UNL1        0.0217
     27 C          63.5206   85.6159   13.0707 C.3     1  UNL1        0.0792
     28 N          63.1201   84.1773   12.9297 N.am    1  UNL1       -0.2720
     29 C          62.1621   83.5660   13.9088 C.2     1  UNL1        0.4020
     30 O          61.6047   84.3934   15.0289 O.2     1  UNL1       -0.2264
     31 H          63.4860   83.6343   12.1945 H       1  UNL1        0.1527
     32 O          61.7617   82.1273   13.7678 O.3     1  UNL1       -0.4280
     33 C          62.7971   81.0876   13.4568 C.3     1  UNL1        0.2550
     34 C          62.8496   80.4659   12.0927 C.ar    1  UNL1        0.0986
     35 C          63.1317   81.1845   10.8066 C.ar    1  UNL1        0.1168
     36 N          63.0858   80.1792    9.6942 N.ar    1  UNL1       -0.2228
     37 C          62.7753   78.8394   10.2928 C.ar    1  UNL1        0.1749
     38 N          62.6294   79.0166   11.7752 N.ar    1  UNL1       -0.3353
     39 H          62.4249   78.3063   12.4255 H       1  UNL1        0.1673
     40 C          64.4569   86.0298   14.1670 C.3     1  UNL1        0.0460
     41 C          63.9193   86.6827   15.4059 C.ar    1  UNL1       -0.0205
     42 C          63.4889   85.8413   16.5707 C.ar    1  UNL1       -0.0042
     43 C          62.9513   86.4942   17.8095 C.ar    1  UNL1       -0.0003
     44 C          62.8441   87.9885   17.8835 C.ar    1  UNL1       -0.0000
     45 C          63.2745   88.8299   16.7187 C.ar    1  UNL1       -0.0003
     46 C          63.8121   88.1770   15.4799 C.ar    1  UNL1       -0.0042
     47 C          62.7188   90.5871   11.7934 C.3     1  UNL1        0.0459
     48 C          64.0285   91.2475   12.1072 C.ar    1  UNL1       -0.0205
     49 C          64.6258   91.1156   13.4768 C.ar    1  UNL1       -0.0042
     50 C          65.9356   91.7760   13.7905 C.ar    1  UNL1       -0.0003
     51 C          66.6480   92.5682   12.7348 C.ar    1  UNL1       -0.0000
     52 C          66.0507   92.7001   11.3651 C.ar    1  UNL1       -0.0003
     53 C          64.7410   92.0397   11.0513 C.ar    1  UNL1       -0.0042
@<TRIPOS>BOND
     1    19    20    1
     2    20    21    1
     3    20    14    1
     4    14    15   ar
     5    15    16   ar
     6    16    13    1
     7    13     7    1
     8     7     8    1
     9     7     9   am
    10     9    10    2
    11     9    11   am
    12     6    11    1
    13     6     2    1
    14     2     3    2
    15     2     4   am
    16     4     1    1
    17     1    25    1
    18    25    26    1
    19    27    26    1
    20    27    40    1
    21    40    41    1
    22    41    42   ar
    23    42    43   ar
    24    43    44   ar
    25    44    45   ar
    26    45    46   ar
    27    27    28    1
    28    28    29   am
    29    29    30    2
    30    29    32    1
    31    32    33    1
    32    33    34    1
    33    34    35   ar
    34    35    36   ar
    35    36    37   ar
    36    37    38   ar
    37     1    47    1
    38    47    48    1
    39    48    49   ar
    40    49    50   ar
    41    50    51   ar
    42    51    52   ar
    43    52    53   ar
    44     6    22    1
    45    22    23    1
    46    22    24    1
    47    16    17   ar
    48    17    18   ar
    49    18    14   ar
    50    46    41   ar
    51    38    34   ar
    52    53    48   ar
    53    11    12    1
    54     4     5    1
    55    28    31    1
    56    38    39    1
