@<TRIPOS>MOLECULE
*****
 33 36 0 0 0
SMALL
GASTEIGER

@<TRIPOS>ATOM
      1 C          62.2024   86.6202   10.7549 C.3     1  UNL1        0.1812
      2 O          62.9573   86.5032   12.0457 O.3     1  UNL1       -0.3784
      3 H          63.4811   85.6868   12.0410 H       1  UNL1        0.2106
      4 C          61.4474   86.7373    9.4640 C.3     1  UNL1        0.4197
      5 F          60.6925   86.8543    8.1731 F       1  UNL1       -0.1676
      6 F          60.1923   87.0444   10.2259 F       1  UNL1       -0.1676
      7 F          62.7025   86.4302    8.7022 F       1  UNL1       -0.1676
      8 C          62.7946   85.3225   10.2908 C.3     1  UNL1        0.0398
      9 C          63.6628   83.3874   10.2534 C.3     1  UNL1        0.0045
     10 C          62.7105   84.1052   11.1632 C.3     1  UNL1        0.0215
     11 C          61.7582   84.8231   12.0730 C.3     1  UNL1        0.0045
     12 C          62.6263   82.8879   12.0356 C.ar    1  UNL1       -0.0227
     13 C          62.8979   81.5307   11.4574 C.ar    1  UNL1       -0.0043
     14 C          62.8137   80.3134   12.3299 C.ar    1  UNL1       -0.0003
     15 C          62.4581   80.4533   13.7804 C.ar    1  UNL1       -0.0000
     16 C          62.1866   81.8105   14.3585 C.ar    1  UNL1       -0.0003
     17 C          62.2707   83.0278   13.4861 C.ar    1  UNL1       -0.0043
     18 C          61.6101   87.9179   11.2189 C.3     1  UNL1        0.0811
     19 C          62.4900   89.1171   11.4126 C.2     1  UNL1        0.0614
     20 C          62.9673   90.0440   10.3341 C.2     1  UNL1        0.0163
     21 C          63.8194   91.0998   10.9738 C.2     1  UNL1        0.0264
     22 C          64.5567   92.2756   10.4047 C.2     1  UNL1        0.0903
     23 C          65.3436   93.1769   11.3094 C.2     1  UNL1        0.3192
     24 N          65.3930   92.9025   12.7833 N.2     1  UNL1       -0.0585
     25 C          64.6557   91.7267   13.3524 C.3     1  UNL1        0.3085
     26 C          63.8689   90.8254   12.4477 C.2     1  UNL1        0.1121
     27 N          63.0473   89.6000   12.7189 N.2     1  UNL1       -0.2495
     28 N          66.0809   94.3527   10.7403 N.pl3   1  UNL1       -0.1860
     29 C          66.0287   95.6798   11.4377 C.3     1  UNL1        0.2346
     30 C          66.7661   96.8556   10.8685 C.3     1  UNL1        0.1929
     31 O          67.5555   96.7043    9.6020 O.3     1  UNL1       -0.3449
     32 C          67.6076   95.3773    8.9047 C.3     1  UNL1        0.1929
     33 C          66.8703   94.2015    9.4738 C.3     1  UNL1        0.2346
@<TRIPOS>BOND
     1     9    10    1
     2    10    11    1
     3    10     8    1
     4     8     1    1
     5     1     2    1
     6     1    18    1
     7    18    19    1
     8    19    20    2
     9    20    21    1
    10    21    22    2
    11    22    23    1
    12    23    28    1
    13    28    29    1
    14    29    30    1
    15    30    31    1
    16    31    32    1
    17    32    33    1
    18    23    24    2
    19    24    25    1
    20    25    26    1
    21    26    27    2
    22     1     4    1
    23     4     5    1
    24     4     6    1
    25     4     7    1
    26    10    12    1
    27    12    13   ar
    28    13    14   ar
    29    14    15   ar
    30    15    16   ar
    31    16    17   ar
    32    27    19    1
    33    17    12   ar
    34    26    21    1
    35    33    28    1
    36     2     3    1
@<TRIPOS>MOLECULE
*****
 33 36 0 0 0
SMALL
GASTEIGER

@<TRIPOS>ATOM
      1 C          61.3326   88.1334    9.3090 C.3     1  UNL1        0.1812
      2 O          62.6083   87.8728   10.0538 O.3     1  UNL1       -0.3784
      3 H          62.8829   86.9532    9.9128 H       1  UNL1        0.2106
      4 C          60.0570   88.3940    8.5642 C.3     1  UNL1        0.4197
      5 F          58.7813   88.6546    7.8194 F       1  UNL1       -0.1676
      6 F          60.3878   87.2852    7.6096 F       1  UNL1       -0.1676
      7 F          59.7261   89.5027    9.5188 F       1  UNL1       -0.1676
      8 C          61.3321   86.7172    8.8144 C.3     1  UNL1        0.0398
      9 C          62.9090   85.3703    8.3684 C.3     1  UNL1        0.0045
     10 C          62.0683   85.6561    9.5773 C.3     1  UNL1        0.0215
     11 C          61.2276   85.9419   10.7862 C.3     1  UNL1        0.0045
     12 C          62.8045   84.5949   10.3402 C.ar    1  UNL1       -0.0227
     13 C          62.5789   84.4384   11.8149 C.ar    1  UNL1       -0.0043
     14 C          63.3151   83.3772   12.5777 C.ar    1  UNL1       -0.0003
     15 C          64.2770   82.4727   11.8659 C.ar    1  UNL1       -0.0000
     16 C          64.5026   82.6293   10.3913 C.ar    1  UNL1       -0.0003
     17 C          63.7664   83.6904    9.6284 C.ar    1  UNL1       -0.0043
     18 C          61.3332   89.5495    9.8036 C.3     1  UNL1        0.0811
     19 C          62.2009   89.9384   10.9636 C.2     1  UNL1        0.0614
     20 C          63.4156   90.8163   10.9008 C.2     1  UNL1        0.0163
     21 C          63.9717   90.9382   12.2886 C.2     1  UNL1        0.0264
     22 C          65.1587   91.6763   12.8330 C.2     1  UNL1        0.0903
     23 C          65.4746   91.6118   14.2979 C.2     1  UNL1        0.3192
     24 N          64.6037   90.8093   15.2184 N.2     1  UNL1       -0.0585
     25 C          63.4167   90.0712   14.6740 C.3     1  UNL1        0.3085
     26 C          63.1007   90.1356   13.2092 C.2     1  UNL1        0.1121
     27 N          62.0063   89.5177   12.3902 N.2     1  UNL1       -0.2495
     28 N          66.6616   92.3499   14.8423 N.pl3   1  UNL1       -0.1860
     29 C          66.8011   93.8246   14.6054 C.3     1  UNL1        0.2346
     30 C          67.9880   94.5626   15.1498 C.3     1  UNL1        0.1929
     31 O          69.0355   93.8261   15.9311 O.3     1  UNL1       -0.3449
     32 C          68.8960   92.3515   16.1680 C.3     1  UNL1        0.1929
     33 C          67.7090   91.6134   15.6236 C.3     1  UNL1        0.2346
@<TRIPOS>BOND
     1     9    10    1
     2    10    11    1
     3    10     8    1
     4     8     1    1
     5     1     2    1
     6     1    18    1
     7    18    19    1
     8    19    20    2
     9    20    21    1
    10    21    22    2
    11    22    23    1
    12    23    28    1
    13    28    29    1
    14    29    30    1
    15    30    31    1
    16    31    32    1
    17    32    33    1
    18    23    24    2
    19    24    25    1
    20    25    26    1
    21    26    27    2
    22     1     4    1
    23     4     5    1
    24     4     6    1
    25     4     7    1
    26    10    12    1
    27    12    13   ar
    28    13    14   ar
    29    14    15   ar
    30    15    16   ar
    31    16    17   ar
    32    27    19    1
    33    17    12   ar
    34    26    21    1
    35    33    28    1
    36     2     3    1
@<TRIPOS>MOLECULE
*****
 33 36 0 0 0
SMALL
GASTEIGER

@<TRIPOS>ATOM
      1 C          61.2549   87.7427    9.1831 C.3     1  UNL1        0.1812
      2 O          62.6989   87.8734    9.5672 O.3     1  UNL1       -0.3784
      3 H          63.1569   87.0362    9.3931 H       1  UNL1        0.2106
      4 C          59.8108   87.6120    8.7991 C.3     1  UNL1        0.4197
      5 F          58.3666   87.4813    8.4151 F       1  UNL1       -0.1676
      6 F          60.2132   86.9709    7.5040 F       1  UNL1       -0.1676
      7 F          59.4084   88.2529   10.0942 F       1  UNL1       -0.1676
      8 C          61.4953   86.3232    8.7618 C.3     1  UNL1        0.0398
      9 C          61.3994   85.8382   10.8247 C.3     1  UNL1        0.0045
     10 C          62.2408   85.3882    9.6673 C.3     1  UNL1        0.0215
     11 C          63.0821   84.9381    8.5099 C.3     1  UNL1        0.0045
     12 C          62.9862   84.4531   10.5728 C.ar    1  UNL1       -0.0227
     13 C          62.8652   84.5948   12.0612 C.ar    1  UNL1       -0.0043
     14 C          63.6106   83.6598   12.9668 C.ar    1  UNL1       -0.0003
     15 C          64.4771   82.5829   12.3838 C.ar    1  UNL1       -0.0000
     16 C          64.5981   82.4412   10.8955 C.ar    1  UNL1       -0.0003
     17 C          63.8527   83.3763    9.9900 C.ar    1  UNL1       -0.0043
     18 C          61.0143   89.1620    9.6045 C.3     1  UNL1        0.0811
     19 C          62.1149   89.9488   10.2522 C.2     1  UNL1        0.0614
     20 C          62.6897   89.7031   11.6159 C.2     1  UNL1        0.0163
     21 C          63.7640   90.7218   11.8566 C.2     1  UNL1        0.0264
     22 C          64.6726   90.9655   13.0250 C.2     1  UNL1        0.0903
     23 C          65.6704   92.0846   12.9785 C.2     1  UNL1        0.3192
     24 N          65.7596   92.9599   11.7637 N.2     1  UNL1       -0.0585
     25 C          64.8511   92.7163   10.5953 C.3     1  UNL1        0.3085
     26 C          63.8533   91.5972   10.6417 C.2     1  UNL1        0.1121
     27 N          62.8341   91.1194    9.6502 N.2     1  UNL1       -0.2495
     28 N          66.5789   92.3283   14.1469 N.pl3   1  UNL1       -0.1860
     29 C          66.0009   92.5444   15.5142 C.3     1  UNL1        0.2346
     30 C          66.9094   92.7881   16.6826 C.3     1  UNL1        0.1929
     31 O          68.3960   92.8157   16.4838 O.3     1  UNL1       -0.3449
     32 C          68.9739   92.5996   15.1166 C.3     1  UNL1        0.1929
     33 C          68.0654   92.3560   13.9482 C.3     1  UNL1        0.2346
@<TRIPOS>BOND
     1     9    10    1
     2    10    11    1
     3    10     8    1
     4     8     1    1
     5     1     2    1
     6     1    18    1
     7    18    19    1
     8    19    20    2
     9    20    21    1
    10    21    22    2
    11    22    23    1
    12    23    28    1
    13    28    29    1
    14    29    30    1
    15    30    31    1
    16    31    32    1
    17    32    33    1
    18    23    24    2
    19    24    25    1
    20    25    26    1
    21    26    27    2
    22     1     4    1
    23     4     5    1
    24     4     6    1
    25     4     7    1
    26    10    12    1
    27    12    13   ar
    28    13    14   ar
    29    14    15   ar
    30    15    16   ar
    31    16    17   ar
    32    27    19    1
    33    17    12   ar
    34    26    21    1
    35    33    28    1
    36     2     3    1
@<TRIPOS>MOLECULE
*****
 33 36 0 0 0
SMALL
GASTEIGER

@<TRIPOS>ATOM
      1 C          62.6156   89.7979   12.0717 C.3     1  UNL1        0.1812
      2 O          63.9158   89.1894   12.5066 O.3     1  UNL1       -0.3784
      3 H          64.2821   89.7022   13.2440 H       1  UNL1        0.2106
      4 C          61.3155   90.4064   11.6368 C.3     1  UNL1        0.4197
      5 F          60.0152   91.0150   11.2018 F       1  UNL1       -0.1676
      6 F          60.6591   89.8967   12.8856 F       1  UNL1       -0.1676
      7 F          61.9717   90.9162   10.3880 F       1  UNL1       -0.1676
      8 C          62.7567   90.8541   13.1275 C.3     1  UNL1        0.0398
      9 C          64.4231   91.8494   12.2714 C.3     1  UNL1        0.0045
     10 C          64.1191   91.2517   13.6132 C.3     1  UNL1        0.0215
     11 C          63.8151   90.6541   14.9550 C.3     1  UNL1        0.0045
     12 C          65.4814   91.6493   14.0990 C.ar    1  UNL1       -0.0227
     13 C          65.6758   92.0697   15.5257 C.ar    1  UNL1       -0.0043
     14 C          67.0381   92.4673   16.0115 C.ar    1  UNL1       -0.0003
     15 C          68.2061   92.4445   15.0705 C.ar    1  UNL1       -0.0000
     16 C          68.0117   92.0240   13.6438 C.ar    1  UNL1       -0.0003
     17 C          66.6494   91.6265   13.1581 C.ar    1  UNL1       -0.0043
     18 C          62.4745   88.7418   11.0159 C.3     1  UNL1        0.0811
     19 C          62.6426   87.2952   11.3751 C.2     1  UNL1        0.0614
     20 C          62.3490   86.1254   10.4831 C.2     1  UNL1        0.0163
     21 C          62.6587   84.8716   11.2460 C.2     1  UNL1        0.0264
     22 C          62.5618   83.4213   10.8753 C.2     1  UNL1        0.0903
     23 C          62.9498   82.3659   11.8681 C.2     1  UNL1        0.3192
     24 N          63.4348   82.7607   13.2314 N.2     1  UNL1       -0.0585
     25 C          63.5317   84.2110   13.6021 C.3     1  UNL1        0.3085
     26 C          63.1437   85.2664   12.6094 C.2     1  UNL1        0.1121
     27 N          63.1337   86.7643   12.6892 N.2     1  UNL1       -0.2495
     28 N          62.8529   80.9157   11.4974 N.pl3   1  UNL1       -0.1860
     29 C          62.5590   79.8900   12.5518 C.3     1  UNL1        0.2346
     30 C          62.4620   78.4398   12.1812 C.3     1  UNL1        0.1929
     31 O          62.6590   78.0152   10.7560 O.3     1  UNL1       -0.3449
     32 C          62.9528   79.0408    9.7016 C.3     1  UNL1        0.1929
     33 C          63.0498   80.4910   10.0723 C.3     1  UNL1        0.2346
@<TRIPOS>BOND
     1     9    10    1
     2    10    11    1
     3    10     8    1
     4     8     1    1
     5     1     2    1
     6     1    18    1
     7    18    19    1
     8    19    20    2
     9    20    21    1
    10    21    22    2
    11    22    23    1
    12    23    28    1
    13    28    29    1
    14    29    30    1
    15    30    31    1
    16    31    32    1
    17    32    33    1
    18    23    24    2
    19    24    25    1
    20    25    26    1
    21    26    27    2
    22     1     4    1
    23     4     5    1
    24     4     6    1
    25     4     7    1
    26    10    12    1
    27    12    13   ar
    28    13    14   ar
    29    14    15   ar
    30    15    16   ar
    31    16    17   ar
    32    27    19    1
    33    17    12   ar
    34    26    21    1
    35    33    28    1
    36     2     3    1
