@<TRIPOS>MOLECULE
*****
 29 33 0 0 0
SMALL
GASTEIGER

@<TRIPOS>ATOM
      1 C          59.6667   89.2510    7.3720 C.ar    1  UNL1        0.0013
      2 C          59.4833   87.7626    7.3406 C.ar    1  UNL1        0.0002
      3 C          60.1372   86.9043    8.3826 C.ar    1  UNL1        0.0051
      4 C          60.9744   87.5343    9.4559 C.ar    1  UNL1        0.0623
      5 C          61.1577   89.0227    9.4874 C.ar    1  UNL1        0.0775
      6 C          60.5039   89.8811    8.4454 C.ar    1  UNL1        0.0167
      7 N          61.9949   89.6528   10.5607 N.am    1  UNL1       -0.1720
      8 C          62.6488   88.7945   11.6027 C.2     1  UNL1        0.3160
      9 O          63.4860   89.4245   12.6760 O.2     1  UNL1       -0.2638
     10 C          62.4655   87.3060   11.5713 C.2     1  UNL1        0.2907
     11 N          62.9826   86.2121   12.4578 N.2     1  UNL1       -0.0255
     12 C          62.4649   84.9060   11.9324 C.2     1  UNL1        0.3787
     13 N          61.6280   85.1926   10.7211 N.2     1  UNL1       -0.0302
     14 C          61.6283   86.6759   10.4979 C.2     1  UNL1        0.2419
     15 C          62.7366   83.5511   12.5158 C.ar    1  UNL1        0.1263
     16 C          62.3323   83.2478   13.9280 C.ar    1  UNL1        0.1484
     17 F          61.6562   84.2995   14.7569 F       1  UNL1       -0.2039
     18 C          62.6039   81.8929   14.5115 C.ar    1  UNL1        0.0300
     19 C          63.2800   80.8413   13.6827 C.ar    1  UNL1        0.0032
     20 C          63.6843   81.1445   12.2704 C.ar    1  UNL1        0.0118
     21 C          63.4126   82.4994   11.6870 C.ar    1  UNL1        0.0673
     22 CL         63.8170   82.8027   10.2746 Cl      1  UNL1       -0.0819
     23 C          60.0359   92.7043    3.5070 C.3     1  UNL1        0.0310
     24 C          59.1974   91.8360    4.3976 C.ar    1  UNL1       -0.0218
     25 C          57.7051   91.8262    4.2462 C.ar    1  UNL1       -0.0043
     26 C          56.8666   90.9580    5.1367 C.ar    1  UNL1       -0.0003
     27 C          57.5205   90.0996    6.1787 C.ar    1  UNL1       -0.0000
     28 C          59.0128   90.1094    6.3301 C.ar    1  UNL1       -0.0003
     29 C          59.8513   90.9777    5.4395 C.ar    1  UNL1       -0.0043
@<TRIPOS>BOND
     1    23    24    1
     2    24    25   ar
     3    25    26   ar
     4    26    27   ar
     5    27    28   ar
     6    28     1    1
     7     1     2   ar
     8     2     3   ar
     9     3     4   ar
    10     4     5   ar
    11     5     6   ar
    12     5     7    2
    13     7     8    1
    14     8     9    2
    15     8    10    1
    16    10    11    2
    17    11    12    1
    18    12    15    1
    19    15    16   ar
    20    16    17    1
    21    16    18   ar
    22    18    19   ar
    23    19    20   ar
    24    20    21   ar
    25    21    22    1
    26    12    13    2
    27    13    14    1
    28    28    29   ar
    29    29    24   ar
    30     6     1   ar
    31    14    10    1
    32    14     4    2
    33    21    15   ar
@<TRIPOS>MOLECULE
*****
 29 33 0 0 0
SMALL
GASTEIGER

@<TRIPOS>ATOM
      1 C          59.9948   89.1646    7.4188 C.ar    1  UNL1        0.0013
      2 C          59.7758   87.6832    7.3320 C.ar    1  UNL1        0.0002
      3 C          60.3470   86.7778    8.3827 C.ar    1  UNL1        0.0051
      4 C          61.1372   87.3537    9.5201 C.ar    1  UNL1        0.0623
      5 C          61.3562   88.8351    9.6070 C.ar    1  UNL1        0.0775
      6 C          60.7851   89.7405    8.5563 C.ar    1  UNL1        0.0167
      7 N          62.1465   89.4110   10.7445 N.am    1  UNL1       -0.1720
      8 C          62.7176   88.5056   11.7951 C.2     1  UNL1        0.3160
      9 O          63.5078   89.0815   12.9326 O.2     1  UNL1       -0.2638
     10 C          62.4986   87.0241   11.7083 C.2     1  UNL1        0.2907
     11 N          62.9361   85.8915   12.5890 N.2     1  UNL1       -0.0255
     12 C          62.4164   84.6156   11.9959 C.2     1  UNL1        0.3787
     13 N          61.6576   84.9597   10.7486 N.2     1  UNL1       -0.0302
     14 C          61.7084   86.4482   10.5708 C.2     1  UNL1        0.2419
     15 C          62.6197   83.2376   12.5523 C.ar    1  UNL1        0.1263
     16 C          63.0559   82.1214   11.6504 C.ar    1  UNL1        0.1484
     17 F          63.2889   82.3831   10.1918 F       1  UNL1       -0.2039
     18 C          63.2593   80.7433   12.2068 C.ar    1  UNL1        0.0300
     19 C          63.0263   80.4815   13.6653 C.ar    1  UNL1        0.0032
     20 C          62.5900   81.5978   14.5673 C.ar    1  UNL1        0.0118
     21 C          62.3867   82.9758   14.0108 C.ar    1  UNL1        0.0673
     22 CL         61.9504   84.0921   14.9129 Cl      1  UNL1       -0.0819
     23 C          55.8791   91.2141    4.9981 C.3     1  UNL1        0.0310
     24 C          57.3658   91.0948    5.1578 C.ar    1  UNL1       -0.0218
     25 C          58.2813   91.8811    4.2669 C.ar    1  UNL1       -0.0043
     26 C          59.7680   91.7618    4.4266 C.ar    1  UNL1       -0.0003
     27 C          60.3391   90.8563    5.4773 C.ar    1  UNL1       -0.0000
     28 C          59.4237   90.0701    6.3682 C.ar    1  UNL1       -0.0003
     29 C          57.9370   90.1894    6.2084 C.ar    1  UNL1       -0.0043
@<TRIPOS>BOND
     1    23    24    1
     2    24    25   ar
     3    25    26   ar
     4    26    27   ar
     5    27    28   ar
     6    28     1    1
     7     1     2   ar
     8     2     3   ar
     9     3     4   ar
    10     4     5   ar
    11     5     6   ar
    12     5     7    2
    13     7     8    1
    14     8     9    2
    15     8    10    1
    16    10    11    2
    17    11    12    1
    18    12    15    1
    19    15    16   ar
    20    16    17    1
    21    16    18   ar
    22    18    19   ar
    23    19    20   ar
    24    20    21   ar
    25    21    22    1
    26    12    13    2
    27    13    14    1
    28    28    29   ar
    29    29    24   ar
    30     6     1   ar
    31    14    10    1
    32    14     4    2
    33    21    15   ar
@<TRIPOS>MOLECULE
*****
 29 33 0 0 0
SMALL
GASTEIGER

@<TRIPOS>ATOM
      1 C          63.0264   83.3744   12.5493 C.ar    1  UNL1        0.0013
      2 C          63.9083   83.8705   13.6565 C.ar    1  UNL1        0.0002
      3 C          64.1291   85.3431   13.8369 C.ar    1  UNL1        0.0051
      4 C          63.4679   86.3197   12.9100 C.ar    1  UNL1        0.0623
      5 C          62.5860   85.8236   11.8027 C.ar    1  UNL1        0.0775
      6 C          62.3652   84.3509   11.6224 C.ar    1  UNL1        0.0167
      7 N          61.9248   86.8001   10.8758 N.am    1  UNL1       -0.1720
      8 C          62.1456   88.2728   11.0561 C.2     1  UNL1        0.3160
      9 O          61.4844   89.2493   10.1292 O.2     1  UNL1       -0.2638
     10 C          63.0275   88.7689   12.1634 C.2     1  UNL1        0.2907
     11 N          63.4287   90.1517   12.5840 N.2     1  UNL1       -0.0255
     12 C          64.3378   90.0298   13.7708 C.2     1  UNL1        0.3787
     13 N          64.4985   88.5717   14.0838 N.2     1  UNL1       -0.0302
     14 C          63.6887   87.7924   13.0903 C.2     1  UNL1        0.2419
     15 C          64.9744   91.1664   14.5143 C.ar    1  UNL1        0.1263
     16 C          66.0097   92.0172   13.8402 C.ar    1  UNL1        0.1484
     17 F          66.4083   91.7313   12.4226 F       1  UNL1       -0.2039
     18 C          66.6463   93.1539   14.5836 C.ar    1  UNL1        0.0300
     19 C          66.2477   93.4398   16.0011 C.ar    1  UNL1        0.0032
     20 C          65.2125   92.5890   16.6752 C.ar    1  UNL1        0.0118
     21 C          64.5758   91.4523   15.9317 C.ar    1  UNL1        0.0673
     22 CL         63.5406   90.6015   16.6059 Cl      1  UNL1       -0.0819
     23 C          62.9689   79.1741    9.4908 C.3     1  UNL1        0.0310
     24 C          62.7769   79.8016   10.8396 C.ar    1  UNL1       -0.0218
     25 C          62.3641   78.9563   12.0081 C.ar    1  UNL1       -0.0043
     26 C          62.1721   79.5838   13.3570 C.ar    1  UNL1       -0.0003
     27 C          62.3928   81.0565   13.5373 C.ar    1  UNL1       -0.0000
     28 C          62.8056   81.9017   12.3689 C.ar    1  UNL1       -0.0003
     29 C          62.9976   81.2742   11.0201 C.ar    1  UNL1       -0.0043
@<TRIPOS>BOND
     1    23    24    1
     2    24    25   ar
     3    25    26   ar
     4    26    27   ar
     5    27    28   ar
     6    28     1    1
     7     1     2   ar
     8     2     3   ar
     9     3     4   ar
    10     4     5   ar
    11     5     6   ar
    12     5     7    2
    13     7     8    1
    14     8     9    2
    15     8    10    1
    16    10    11    2
    17    11    12    1
    18    12    15    1
    19    15    16   ar
    20    16    17    1
    21    16    18   ar
    22    18    19   ar
    23    19    20   ar
    24    20    21   ar
    25    21    22    1
    26    12    13    2
    27    13    14    1
    28    28    29   ar
    29    29    24   ar
    30     6     1   ar
    31    14    10    1
    32    14     4    2
    33    21    15   ar
@<TRIPOS>MOLECULE
*****
 29 33 0 0 0
SMALL
GASTEIGER

@<TRIPOS>ATOM
      1 C          62.9280   83.6691   12.8539 C.ar    1  UNL1        0.0013
      2 C          63.9020   84.1906   13.8685 C.ar    1  UNL1        0.0002
      3 C          64.1609   85.6645   13.9712 C.ar    1  UNL1        0.0051
      4 C          63.4458   86.6169   13.0593 C.ar    1  UNL1        0.0623
      5 C          62.4719   86.0955   12.0447 C.ar    1  UNL1        0.0775
      6 C          62.2130   84.6216   11.9420 C.ar    1  UNL1        0.0167
      7 N          61.7568   87.0479   11.1328 N.am    1  UNL1       -0.1720
      8 C          62.0157   88.5218   11.2355 C.2     1  UNL1        0.3160
      9 O          61.3007   89.4742   10.3235 O.2     1  UNL1       -0.2638
     10 C          62.9897   89.0433   12.2501 C.2     1  UNL1        0.2907
     11 N          63.4457   90.4333   12.5819 N.2     1  UNL1       -0.0255
     12 C          64.4425   90.3399   13.6988 C.2     1  UNL1        0.3787
     13 N          64.6026   88.8922   14.0573 N.2     1  UNL1       -0.0302
     14 C          63.7047   88.0909   13.1620 C.2     1  UNL1        0.2419
     15 C          65.1543   91.4919   14.3439 C.ar    1  UNL1        0.1263
     16 C          64.9880   91.7489   15.8122 C.ar    1  UNL1        0.1484
     17 F          64.1099   90.8539   16.6356 F       1  UNL1       -0.2039
     18 C          65.6998   92.9010   16.4573 C.ar    1  UNL1        0.0300
     19 C          66.5779   93.7960   15.6341 C.ar    1  UNL1        0.0032
     20 C          66.7441   93.5390   14.1657 C.ar    1  UNL1        0.0118
     21 C          66.0324   92.3869   13.5206 C.ar    1  UNL1        0.0673
     22 CL         66.1987   92.1299   12.0521 Cl      1  UNL1       -0.0819
     23 C          62.9049   79.2884   10.0596 C.3     1  UNL1        0.0310
     24 C          62.6576   80.0048   11.3540 C.ar    1  UNL1       -0.0218
     25 C          62.1513   79.2473   12.5456 C.ar    1  UNL1       -0.0043
     26 C          61.9039   79.9638   13.8400 C.ar    1  UNL1       -0.0003
     27 C          62.1629   81.4378   13.9428 C.ar    1  UNL1       -0.0000
     28 C          62.6691   82.1952   12.7512 C.ar    1  UNL1       -0.0003
     29 C          62.9165   81.4787   11.4567 C.ar    1  UNL1       -0.0043
@<TRIPOS>BOND
     1    23    24    1
     2    24    25   ar
     3    25    26   ar
     4    26    27   ar
     5    27    28   ar
     6    28     1    1
     7     1     2   ar
     8     2     3   ar
     9     3     4   ar
    10     4     5   ar
    11     5     6   ar
    12     5     7    2
    13     7     8    1
    14     8     9    2
    15     8    10    1
    16    10    11    2
    17    11    12    1
    18    12    15    1
    19    15    16   ar
    20    16    17    1
    21    16    18   ar
    22    18    19   ar
    23    19    20   ar
    24    20    21   ar
    25    21    22    1
    26    12    13    2
    27    13    14    1
    28    28    29   ar
    29    29    24   ar
    30     6     1   ar
    31    14    10    1
    32    14     4    2
    33    21    15   ar
@<TRIPOS>MOLECULE
*****
 29 33 0 0 0
SMALL
GASTEIGER

@<TRIPOS>ATOM
      1 C          62.7177   83.5100   13.9742 C.ar    1  UNL1        0.0013
      2 C          63.2396   84.2616   12.7857 C.ar    1  UNL1        0.0002
      3 C          63.6255   85.7048   12.9213 C.ar    1  UNL1        0.0051
      4 C          63.4895   86.3963   14.2455 C.ar    1  UNL1        0.0623
      5 C          62.9676   85.6447   15.4340 C.ar    1  UNL1        0.0775
      6 C          62.5817   84.2016   15.2984 C.ar    1  UNL1        0.0167
      7 N          62.8316   86.3362   16.7581 N.am    1  UNL1       -0.1720
      8 C          63.2175   87.7793   16.8937 C.2     1  UNL1        0.3160
      9 O          63.0815   88.4708   18.2179 O.2     1  UNL1       -0.2638
     10 C          63.7395   88.5310   15.7052 C.2     1  UNL1        0.2907
     11 N          64.1960   89.9498   15.5362 N.2     1  UNL1       -0.0255
     12 C          64.6141   90.1351   14.1076 C.2     1  UNL1        0.3787
     13 N          64.4161   88.8309   13.3937 N.2     1  UNL1       -0.0302
     14 C          63.8755   87.8395   14.3810 C.2     1  UNL1        0.2419
     15 C          65.1383   91.4023   13.4997 C.ar    1  UNL1        0.1263
     16 C          66.1155   92.2501   14.2589 C.ar    1  UNL1        0.1484
     17 F          66.5685   91.8307   15.6260 F       1  UNL1       -0.2039
     18 C          66.6396   93.5172   13.6509 C.ar    1  UNL1        0.0300
     19 C          66.1866   93.9366   12.2839 C.ar    1  UNL1        0.0032
     20 C          65.2095   93.0888   11.5248 C.ar    1  UNL1        0.0118
     21 C          64.6853   91.8216   12.1327 C.ar    1  UNL1        0.0673
     22 CL         63.7081   90.9738   11.3735 Cl      1  UNL1       -0.0819
     23 C          59.1709   79.7392   14.4229 C.3     1  UNL1        0.0310
     24 C          60.5583   80.1815   14.0630 C.ar    1  UNL1       -0.0218
     25 C          61.5597   79.1806   13.5676 C.ar    1  UNL1       -0.0043
     26 C          62.9471   79.6228   13.2077 C.ar    1  UNL1       -0.0003
     27 C          63.3331   81.0660   13.3432 C.ar    1  UNL1       -0.0000
     28 C          62.3317   82.0669   13.8387 C.ar    1  UNL1       -0.0003
     29 C          60.9443   81.6246   14.1986 C.ar    1  UNL1       -0.0043
@<TRIPOS>BOND
     1    23    24    1
     2    24    25   ar
     3    25    26   ar
     4    26    27   ar
     5    27    28   ar
     6    28     1    1
     7     1     2   ar
     8     2     3   ar
     9     3     4   ar
    10     4     5   ar
    11     5     6   ar
    12     5     7    2
    13     7     8    1
    14     8     9    2
    15     8    10    1
    16    10    11    2
    17    11    12    1
    18    12    15    1
    19    15    16   ar
    20    16    17    1
    21    16    18   ar
    22    18    19   ar
    23    19    20   ar
    24    20    21   ar
    25    21    22    1
    26    12    13    2
    27    13    14    1
    28    28    29   ar
    29    29    24   ar
    30     6     1   ar
    31    14    10    1
    32    14     4    2
    33    21    15   ar
@<TRIPOS>MOLECULE
*****
 29 33 0 0 0
SMALL
GASTEIGER

@<TRIPOS>ATOM
      1 C          64.4263   89.2350   14.4362 C.ar    1  UNL1        0.0013
      2 C          64.7492   87.9286   15.0987 C.ar    1  UNL1        0.0002
      3 C          64.3172   86.6394   14.4652 C.ar    1  UNL1        0.0051
      4 C          63.5622   86.6566   13.1692 C.ar    1  UNL1        0.0623
      5 C          63.2393   87.9630   12.5066 C.ar    1  UNL1        0.0775
      6 C          63.6713   89.2522   13.1401 C.ar    1  UNL1        0.0167
      7 N          62.4843   87.9802   11.2106 N.am    1  UNL1       -0.1720
      8 C          62.0523   86.6910   10.5771 C.2     1  UNL1        0.3160
      9 O          61.2973   86.7082    9.2811 O.2     1  UNL1       -0.2638
     10 C          62.3753   85.3845   11.2397 C.2     1  UNL1        0.2907
     11 N          62.0821   83.9646   10.8552 N.2     1  UNL1       -0.0255
     12 C          62.6559   83.0699   11.9135 C.2     1  UNL1        0.3787
     13 N          63.3036   83.9368   12.9522 N.2     1  UNL1       -0.0302
     14 C          63.1302   85.3673   12.5357 C.2     1  UNL1        0.2419
     15 C          62.5929   81.5713   11.9303 C.ar    1  UNL1        0.1263
     16 C          63.0078   80.7896   10.7192 C.ar    1  UNL1        0.1484
     17 F          63.4857   81.5065    9.4913 F       1  UNL1       -0.2039
     18 C          62.9448   79.2910   10.7360 C.ar    1  UNL1        0.0300
     19 C          62.4670   78.5742   11.9639 C.ar    1  UNL1        0.0032
     20 C          62.0521   79.3559   13.1750 C.ar    1  UNL1        0.0118
     21 C          62.1151   80.8544   13.1582 C.ar    1  UNL1        0.0673
     22 CL         61.7001   81.6362   14.3694 Cl      1  UNL1       -0.0819
     23 C          67.7798   93.1915   14.7525 C.3     1  UNL1        0.0310
     24 C          66.5350   92.5024   15.2278 C.ar    1  UNL1       -0.0218
     25 C          65.7223   93.1027   16.3365 C.ar    1  UNL1       -0.0043
     26 C          64.4776   92.4137   16.8118 C.ar    1  UNL1       -0.0003
     27 C          64.0455   91.1244   16.1783 C.ar    1  UNL1       -0.0000
     28 C          64.8583   90.5242   15.0696 C.ar    1  UNL1       -0.0003
     29 C          66.1030   91.2132   14.5944 C.ar    1  UNL1       -0.0043
@<TRIPOS>BOND
     1    23    24    1
     2    24    25   ar
     3    25    26   ar
     4    26    27   ar
     5    27    28   ar
     6    28     1    1
     7     1     2   ar
     8     2     3   ar
     9     3     4   ar
    10     4     5   ar
    11     5     6   ar
    12     5     7    2
    13     7     8    1
    14     8     9    2
    15     8    10    1
    16    10    11    2
    17    11    12    1
    18    12    15    1
    19    15    16   ar
    20    16    17    1
    21    16    18   ar
    22    18    19   ar
    23    19    20   ar
    24    20    21   ar
    25    21    22    1
    26    12    13    2
    27    13    14    1
    28    28    29   ar
    29    29    24   ar
    30     6     1   ar
    31    14    10    1
    32    14     4    2
    33    21    15   ar
