@<TRIPOS>MOLECULE
*****
 26 29 0 0 0
SMALL
GASTEIGER

@<TRIPOS>ATOM
      1 C          62.6594   83.5756   12.5740 C.2     1  UNL1        0.1203
      2 C          63.6655   83.9051   13.6367 C.2     1  UNL1        0.0299
      3 C          64.0732   85.3300   13.8674 C.2     1  UNL1       -0.0018
      4 C          65.0793   85.6596   14.9301 C.3     1  UNL1        0.0327
      5 C          63.4749   86.4255   13.0354 C.ar    1  UNL1        0.0754
      6 N          63.8827   87.8505   13.2661 N.ar    1  UNL1       -0.2257
      7 C          63.2845   88.9458   12.4341 C.ar    1  UNL1        0.1846
      8 N          63.4908   90.4316   12.4324 N.2     1  UNL1       -0.1288
      9 N          62.6122   91.0202   11.3686 N.2     1  UNL1       -0.1508
     10 C          61.8630   89.8983   10.7129 C.2     1  UNL1        0.0837
     11 C          60.8722   90.0346    9.5949 C.3     1  UNL1        0.0541
     12 C          62.2784   88.6162   11.3714 C.ar    1  UNL1        0.0512
     13 C          61.8707   87.1913   11.1407 C.ar    1  UNL1        0.0106
     14 C          62.4690   86.0959   11.9727 C.ar    1  UNL1        0.0015
     15 C          62.0612   84.6709   11.7420 C.3     1  UNL1        0.0914
     16 C          60.8647   86.8617   10.0780 C.3     1  UNL1        0.1564
     17 O          59.4324   87.2742   10.2473 O.3     1  UNL1       -0.3756
     18 H          59.3278   87.7404   11.0915 H       1  UNL1        0.2112
     19 C          61.2908   86.1196    8.8461 C.ar    1  UNL1        0.0276
     20 C          62.7193   85.6910    8.6853 C.ar    1  UNL1        0.0015
     21 C          63.1454   84.9488    7.4533 C.ar    1  UNL1        0.0204
     22 C          62.1432   84.6354    6.3822 C.ar    1  UNL1        0.0989
     23 N          60.7147   85.0641    6.5431 N.ar    1  UNL1       -0.2426
     24 C          60.2885   85.8062    7.7750 C.ar    1  UNL1        0.0972
     25 C          61.8395   81.2915   13.5018 C.3     1  UNL1        0.2520
     26 O          62.2517   82.1506   12.3433 O.2     1  UNL1       -0.4754
@<TRIPOS>BOND
     1    25    26    1
     2    26     1    1
     3     1     2    2
     4     2     3    1
     5     3     4    1
     6     3     5    2
     7     5     6   ar
     8     6     7   ar
     9     7     8    1
    10     8     9    2
    11     9    10    1
    12    10    11    1
    13    10    12    2
    14    12    13   ar
    15    13    16    1
    16    16    17    1
    17    16    19    1
    18    19    20   ar
    19    20    21   ar
    20    21    22   ar
    21    22    23   ar
    22    23    24   ar
    23    13    14   ar
    24    14    15    1
    25    15     1    1
    26    14     5   ar
    27    12     7   ar
    28    24    19   ar
    29    17    18    1
@<TRIPOS>MOLECULE
*****
 26 29 0 0 0
SMALL
GASTEIGER

@<TRIPOS>ATOM
      1 C          63.9523   85.7059   13.6886 C.2     1  UNL1        0.1203
      2 C          64.0193   84.4071   12.9412 C.2     1  UNL1        0.0299
      3 C          63.3389   84.2712   11.6113 C.2     1  UNL1       -0.0018
      4 C          63.4058   82.9725   10.8638 C.3     1  UNL1        0.0327
      5 C          62.5916   85.4342   11.0288 C.ar    1  UNL1        0.0754
      6 N          61.9112   85.2983    9.6989 N.ar    1  UNL1       -0.2257
      7 C          61.1639   86.4612    9.1165 C.ar    1  UNL1        0.1846
      8 N          60.4007   86.6238    7.8354 N.2     1  UNL1       -0.1288
      9 N          59.8621   88.0230    7.7912 N.2     1  UNL1       -0.1508
     10 C          60.2925   88.7253    9.0449 C.2     1  UNL1        0.0837
     11 C          59.9741   90.1437    9.4146 C.3     1  UNL1        0.0541
     12 C          61.0971   87.7600    9.8640 C.ar    1  UNL1        0.0512
     13 C          61.7774   87.8958   11.1939 C.ar    1  UNL1        0.0106
     14 C          62.5247   86.7329   11.7762 C.ar    1  UNL1        0.0015
     15 C          63.2051   86.8688   13.1062 C.3     1  UNL1        0.0914
     16 C          61.7106   89.1946   11.9413 C.3     1  UNL1        0.1564
     17 O          60.5133   89.5122   12.7875 O.3     1  UNL1       -0.3756
     18 H          59.8809   88.7781   12.7415 H       1  UNL1        0.2112
     19 C          62.8408   90.1758   11.8427 C.ar    1  UNL1        0.0276
     20 C          63.1429   90.8427   10.5336 C.ar    1  UNL1        0.0015
     21 C          64.2732   91.8240   10.4350 C.ar    1  UNL1        0.0204
     22 C          65.1014   92.1381   11.6455 C.ar    1  UNL1        0.0989
     23 N          64.7993   91.4711   12.9547 N.ar    1  UNL1       -0.2426
     24 C          63.6690   90.4899   13.0533 C.ar    1  UNL1        0.0972
     25 C          63.8374   85.7163   16.2842 C.3     1  UNL1        0.2520
     26 O          64.6327   85.8417   15.0185 O.2     1  UNL1       -0.4754
@<TRIPOS>BOND
     1    25    26    1
     2    26     1    1
     3     1     2    2
     4     2     3    1
     5     3     4    1
     6     3     5    2
     7     5     6   ar
     8     6     7   ar
     9     7     8    1
    10     8     9    2
    11     9    10    1
    12    10    11    1
    13    10    12    2
    14    12    13   ar
    15    13    16    1
    16    16    17    1
    17    16    19    1
    18    19    20   ar
    19    20    21   ar
    20    21    22   ar
    21    22    23   ar
    22    23    24   ar
    23    13    14   ar
    24    14    15    1
    25    15     1    1
    26    14     5   ar
    27    12     7   ar
    28    24    19   ar
    29    17    18    1
@<TRIPOS>MOLECULE
*****
 26 29 0 0 0
SMALL
GASTEIGER

@<TRIPOS>ATOM
      1 C          64.0987   87.5239   14.3566 C.2     1  UNL1        0.1203
      2 C          63.6530   87.3146   15.7735 C.2     1  UNL1        0.0299
      3 C          63.1098   85.9830   16.1999 C.2     1  UNL1       -0.0018
      4 C          62.6641   85.7736   17.6167 C.3     1  UNL1        0.0327
      5 C          63.0122   84.8608   15.2092 C.ar    1  UNL1        0.0754
      6 N          62.4689   83.5292   15.6356 N.ar    1  UNL1       -0.2257
      7 C          62.3713   82.4070   14.6451 C.ar    1  UNL1        0.1846
      8 N          61.8817   80.9950   14.7731 N.2     1  UNL1       -0.1288
      9 N          62.0248   80.3317   13.4354 N.2     1  UNL1       -0.1508
     10 C          62.6028   81.3338   12.4806 C.2     1  UNL1        0.0837
     11 C          62.9124   81.0951   11.0324 C.3     1  UNL1        0.0541
     12 C          62.8170   82.6164   13.2282 C.ar    1  UNL1        0.0512
     13 C          63.3603   83.9480   12.8019 C.ar    1  UNL1        0.0106
     14 C          63.4579   85.0701   13.7925 C.ar    1  UNL1        0.0015
     15 C          64.0012   86.4018   13.3661 C.3     1  UNL1        0.0914
     16 C          63.8060   84.1574   11.3850 C.3     1  UNL1        0.1564
     17 O          65.1512   83.6639   10.9412 O.3     1  UNL1       -0.3756
     18 H          65.6009   83.2363   11.6868 H       1  UNL1        0.2112
     19 C          62.9065   84.8603   10.4120 C.ar    1  UNL1        0.0276
     20 C          63.2160   84.8255    8.9447 C.ar    1  UNL1        0.0015
     21 C          62.3164   85.5285    7.9716 C.ar    1  UNL1        0.0204
     22 C          61.1076   86.2662    8.4658 C.ar    1  UNL1        0.0989
     23 N          60.7982   86.3011    9.9333 N.ar    1  UNL1       -0.2426
     24 C          61.6977   85.5981   10.9063 C.ar    1  UNL1        0.0972
     25 C          63.7141   89.9110   13.4058 C.3     1  UNL1        0.2520
     26 O          64.6420   88.8555   13.9303 O.2     1  UNL1       -0.4754
@<TRIPOS>BOND
     1    25    26    1
     2    26     1    1
     3     1     2    2
     4     2     3    1
     5     3     4    1
     6     3     5    2
     7     5     6   ar
     8     6     7   ar
     9     7     8    1
    10     8     9    2
    11     9    10    1
    12    10    11    1
    13    10    12    2
    14    12    13   ar
    15    13    16    1
    16    16    17    1
    17    16    19    1
    18    19    20   ar
    19    20    21   ar
    20    21    22   ar
    21    22    23   ar
    22    23    24   ar
    23    13    14   ar
    24    14    15    1
    25    15     1    1
    26    14     5   ar
    27    12     7   ar
    28    24    19   ar
    29    17    18    1
@<TRIPOS>MOLECULE
*****
 26 29 0 0 0
SMALL
GASTEIGER

@<TRIPOS>ATOM
      1 C          61.0041   85.9512    8.3553 C.2     1  UNL1        0.1203
      2 C          60.6466   87.3918    8.5720 C.2     1  UNL1        0.0299
      3 C          61.1244   88.1063    9.8014 C.2     1  UNL1       -0.0018
      4 C          60.7670   89.5468   10.0182 C.3     1  UNL1        0.0327
      5 C          61.9596   87.3801   10.8140 C.ar    1  UNL1        0.0754
      6 N          62.4373   88.0946   12.0434 N.ar    1  UNL1       -0.2257
      7 C          63.2725   87.3684   13.0559 C.ar    1  UNL1        0.1846
      8 N          63.8830   87.8072   14.3539 N.2     1  UNL1       -0.1288
      9 N          64.6176   86.6378   14.9392 N.2     1  UNL1       -0.1508
     10 C          64.4613   85.4763   14.0030 C.2     1  UNL1        0.0837
     11 C          65.0354   84.1041   14.1968 C.3     1  UNL1        0.0541
     12 C          63.6299   85.9279   12.8390 C.ar    1  UNL1        0.0512
     13 C          63.1521   85.2134   11.6097 C.ar    1  UNL1        0.0106
     14 C          62.3170   85.9396   10.5972 C.ar    1  UNL1        0.0015
     15 C          61.8392   85.2251    9.3678 C.3     1  UNL1        0.0914
     16 C          63.5095   83.7729   11.3928 C.3     1  UNL1        0.1564
     17 O          64.5030   83.3978   10.3333 O.3     1  UNL1       -0.3756
     18 H          64.8152   84.1992    9.8846 H       1  UNL1        0.2112
     19 C          62.8735   82.7073   12.2355 C.ar    1  UNL1        0.0276
     20 C          63.0190   81.2637   11.8548 C.ar    1  UNL1        0.0015
     21 C          62.3830   80.1981   12.6976 C.ar    1  UNL1        0.0204
     22 C          61.6016   80.5761   13.9208 C.ar    1  UNL1        0.0989
     23 N          61.4561   82.0198   14.3015 N.ar    1  UNL1       -0.2426
     24 C          62.0921   83.0854   13.4588 C.ar    1  UNL1        0.0972
     25 C          61.5004   84.4810    6.2715 C.3     1  UNL1        0.2520
     26 O          60.5263   85.2368    7.1259 O.2     1  UNL1       -0.4754
@<TRIPOS>BOND
     1    25    26    1
     2    26     1    1
     3     1     2    2
     4     2     3    1
     5     3     4    1
     6     3     5    2
     7     5     6   ar
     8     6     7   ar
     9     7     8    1
    10     8     9    2
    11     9    10    1
    12    10    11    1
    13    10    12    2
    14    12    13   ar
    15    13    16    1
    16    16    17    1
    17    16    19    1
    18    19    20   ar
    19    20    21   ar
    20    21    22   ar
    21    22    23   ar
    22    23    24   ar
    23    13    14   ar
    24    14    15    1
    25    15     1    1
    26    14     5   ar
    27    12     7   ar
    28    24    19   ar
    29    17    18    1
@<TRIPOS>MOLECULE
*****
 26 29 0 0 0
SMALL
GASTEIGER

@<TRIPOS>ATOM
      1 C          61.0088   89.3999   12.0244 C.2     1  UNL1        0.1203
      2 C          61.2801   89.8622   10.6234 C.2     1  UNL1        0.0299
      3 C          62.4853   90.7064   10.3324 C.2     1  UNL1       -0.0018
      4 C          62.7567   91.1687    8.9314 C.3     1  UNL1        0.0327
      5 C          63.4192   91.0885   11.4424 C.ar    1  UNL1        0.0754
      6 N          64.6244   91.9328   11.1513 N.ar    1  UNL1       -0.2257
      7 C          65.5583   92.3148   12.2613 C.ar    1  UNL1        0.1846
      8 N          66.8166   93.1311   12.2780 N.2     1  UNL1       -0.1288
      9 N          67.3230   93.1732   13.6893 N.2     1  UNL1       -0.1508
     10 C          66.3776   92.3831   14.5448 C.2     1  UNL1        0.0837
     11 C          66.5012   92.1623   16.0233 C.3     1  UNL1        0.0541
     12 C          65.2869   91.8526   13.6622 C.ar    1  UNL1        0.0512
     13 C          64.0817   91.0083   13.9532 C.ar    1  UNL1        0.0106
     14 C          63.1479   90.6263   12.8433 C.ar    1  UNL1        0.0015
     15 C          61.9427   89.7820   13.1344 C.3     1  UNL1        0.0914
     16 C          63.8104   90.5460   15.3542 C.3     1  UNL1        0.1564
     17 O          63.5887   91.5508   16.4458 O.3     1  UNL1       -0.3756
     18 H          63.6539   92.4464   16.0791 H       1  UNL1        0.2112
     19 C          63.7607   89.0791   15.6636 C.ar    1  UNL1        0.0276
     20 C          64.4705   88.1009   14.7753 C.ar    1  UNL1        0.0015
     21 C          64.4208   86.6339   15.0848 C.ar    1  UNL1        0.0204
     22 C          63.6613   86.1454   16.2824 C.ar    1  UNL1        0.0989
     23 N          62.9515   87.1237   17.1707 N.ar    1  UNL1       -0.2426
     24 C          63.0012   88.5906   16.8613 C.ar    1  UNL1        0.0972
     25 C          58.5203   89.2030   12.7447 C.3     1  UNL1        0.2520
     26 O          59.8037   88.5556   12.3155 O.2     1  UNL1       -0.4754
@<TRIPOS>BOND
     1    25    26    1
     2    26     1    1
     3     1     2    2
     4     2     3    1
     5     3     4    1
     6     3     5    2
     7     5     6   ar
     8     6     7   ar
     9     7     8    1
    10     8     9    2
    11     9    10    1
    12    10    11    1
    13    10    12    2
    14    12    13   ar
    15    13    16    1
    16    16    17    1
    17    16    19    1
    18    19    20   ar
    19    20    21   ar
    20    21    22   ar
    21    22    23   ar
    22    23    24   ar
    23    13    14   ar
    24    14    15    1
    25    15     1    1
    26    14     5   ar
    27    12     7   ar
    28    24    19   ar
    29    17    18    1
@<TRIPOS>MOLECULE
*****
 26 29 0 0 0
SMALL
GASTEIGER

@<TRIPOS>ATOM
      1 C          59.8719   92.3995    3.8911 C.2     1  UNL1        0.1203
      2 C          61.1577   91.6507    4.0814 C.2     1  UNL1        0.0299
      3 C          62.2597   91.7846    3.0726 C.2     1  UNL1       -0.0018
      4 C          63.5456   91.0359    3.2628 C.3     1  UNL1        0.0327
      5 C          62.0760   92.6671    1.8736 C.ar    1  UNL1        0.0754
      6 N          63.1781   92.8009    0.8649 N.ar    1  UNL1       -0.2257
      7 C          62.9943   93.6834   -0.3340 C.ar    1  UNL1        0.1846
      8 N          63.8959   94.0101   -1.4875 N.2     1  UNL1       -0.1288
      9 N          63.1673   94.9607   -2.3905 N.2     1  UNL1       -0.1508
     10 C          61.8154   95.2215   -1.7952 C.2     1  UNL1        0.0837
     11 C          60.7564   96.1149   -2.3699 C.3     1  UNL1        0.0541
     12 C          61.7085   94.4321   -0.5242 C.ar    1  UNL1        0.0512
     13 C          60.6065   94.2983    0.4846 C.ar    1  UNL1        0.0106
     14 C          60.7902   93.4158    1.6835 C.ar    1  UNL1        0.0015
     15 C          59.6881   93.2820    2.6922 C.3     1  UNL1        0.0914
     16 C          59.3206   95.0470    0.2944 C.3     1  UNL1        0.1564
     17 O          59.1654   96.4270    0.8614 O.3     1  UNL1       -0.3756
     18 H          59.9825   96.6832    1.3171 H       1  UNL1        0.2112
     19 C          58.1901   94.4157   -0.4628 C.ar    1  UNL1        0.0276
     20 C          57.2190   95.2759   -1.2158 C.ar    1  UNL1        0.0015
     21 C          56.0885   94.6445   -1.9730 C.ar    1  UNL1        0.0204
     22 C          55.9290   93.1531   -1.9771 C.ar    1  UNL1        0.0989
     23 N          56.9002   92.2928   -1.2240 N.ar    1  UNL1       -0.2426
     24 C          58.0307   92.9241   -0.4669 C.ar    1  UNL1        0.0972
     25 C          58.5038   90.9395    5.5486 C.3     1  UNL1        0.2520
     26 O          58.7698   92.2656    4.8998 O.2     1  UNL1       -0.4754
@<TRIPOS>BOND
     1    25    26    1
     2    26     1    1
     3     1     2    2
     4     2     3    1
     5     3     4    1
     6     3     5    2
     7     5     6   ar
     8     6     7   ar
     9     7     8    1
    10     8     9    2
    11     9    10    1
    12    10    11    1
    13    10    12    2
    14    12    13   ar
    15    13    16    1
    16    16    17    1
    17    16    19    1
    18    19    20   ar
    19    20    21   ar
    20    21    22   ar
    21    22    23   ar
    22    23    24   ar
    23    13    14   ar
    24    14    15    1
    25    15     1    1
    26    14     5   ar
    27    12     7   ar
    28    24    19   ar
    29    17    18    1
@<TRIPOS>MOLECULE
*****
 26 29 0 0 0
SMALL
GASTEIGER

@<TRIPOS>ATOM
      1 C          59.9506   88.8964    8.1339 C.2     1  UNL1        0.1203
      2 C          60.0165   87.5594    7.4568 C.2     1  UNL1        0.0299
      3 C          60.7531   86.4255    8.1061 C.2     1  UNL1       -0.0018
      4 C          60.8191   85.0886    7.4291 C.3     1  UNL1        0.0327
      5 C          61.4239   86.6285    9.4324 C.ar    1  UNL1        0.0754
      6 N          62.1605   85.4945   10.0817 N.ar    1  UNL1       -0.2257
      7 C          62.8312   85.6974   11.4079 C.ar    1  UNL1        0.1846
      8 N          63.6243   84.7731   12.2834 N.2     1  UNL1       -0.1288
      9 N          64.0486   85.5387   13.5015 N.2     1  UNL1       -0.1508
     10 C          63.5177   86.9363   13.3788 C.2     1  UNL1        0.0837
     11 C          63.7061   88.0416   14.3752 C.3     1  UNL1        0.0541
     12 C          62.7653   87.0344   12.0849 C.ar    1  UNL1        0.0512
     13 C          62.0287   88.1683   11.4356 C.ar    1  UNL1        0.0106
     14 C          61.3580   87.9653   10.1094 C.ar    1  UNL1        0.0015
     15 C          60.6213   89.0993    9.4602 C.3     1  UNL1        0.0914
     16 C          61.9627   89.5052   12.1126 C.3     1  UNL1        0.1564
     17 O          60.7959   89.8436   12.9926 O.3     1  UNL1       -0.3756
     18 H          60.1802   89.0945   13.0154 H       1  UNL1        0.2112
     19 C          63.0635   90.5038   11.9097 C.ar    1  UNL1        0.0276
     20 C          63.3947   90.9844   10.5280 C.ar    1  UNL1        0.0015
     21 C          64.4956   91.9830   10.3251 C.ar    1  UNL1        0.0204
     22 C          65.2651   92.5008   11.5039 C.ar    1  UNL1        0.0989
     23 N          64.9338   92.0201   12.8857 N.ar    1  UNL1       -0.2426
     24 C          63.8330   91.0216   13.0886 C.ar    1  UNL1        0.0972
     25 C          59.0722   90.0757    5.9920 C.3     1  UNL1        0.2520
     26 O          59.2140   90.0303    7.4847 O.2     1  UNL1       -0.4754
@<TRIPOS>BOND
     1    25    26    1
     2    26     1    1
     3     1     2    2
     4     2     3    1
     5     3     4    1
     6     3     5    2
     7     5     6   ar
     8     6     7   ar
     9     7     8    1
    10     8     9    2
    11     9    10    1
    12    10    11    1
    13    10    12    2
    14    12    13   ar
    15    13    16    1
    16    16    17    1
    17    16    19    1
    18    19    20   ar
    19    20    21   ar
    20    21    22   ar
    21    22    23   ar
    22    23    24   ar
    23    13    14   ar
    24    14    15    1
    25    15     1    1
    26    14     5   ar
    27    12     7   ar
    28    24    19   ar
    29    17    18    1
@<TRIPOS>MOLECULE
*****
 26 29 0 0 0
SMALL
GASTEIGER

@<TRIPOS>ATOM
      1 C          59.9465   88.9320    8.1225 C.2     1  UNL1        0.1203
      2 C          59.9663   87.5945    7.4436 C.2     1  UNL1        0.0299
      3 C          60.6778   86.4393    8.0833 C.2     1  UNL1       -0.0018
      4 C          60.6977   85.1018    7.4045 C.3     1  UNL1        0.0327
      5 C          61.3695   86.6215    9.4019 C.ar    1  UNL1        0.0754
      6 N          62.0810   85.4662   10.0415 N.ar    1  UNL1       -0.2257
      7 C          62.7727   85.6484   11.3600 C.ar    1  UNL1        0.1846
      8 N          63.5493   84.7008   12.2254 N.2     1  UNL1       -0.1288
      9 N          64.0094   85.4526   13.4391 N.2     1  UNL1       -0.1508
     10 C          63.5172   86.8649   13.3238 C.2     1  UNL1        0.0837
     11 C          63.7487   87.9633   14.3187 C.3     1  UNL1        0.0541
     12 C          62.7528   86.9859   12.0388 C.ar    1  UNL1        0.0512
     13 C          62.0413   88.1411   11.3991 C.ar    1  UNL1        0.0106
     14 C          61.3497   87.9589   10.0806 C.ar    1  UNL1        0.0015
     15 C          60.6382   89.1142    9.4410 C.3     1  UNL1        0.0914
     16 C          62.0215   89.4786   12.0779 C.3     1  UNL1        0.1564
     17 O          60.9135   89.8203   13.0297 O.3     1  UNL1       -0.3756
     18 H          60.2987   89.0726   13.0920 H       1  UNL1        0.2112
     19 C          63.1095   90.4744   11.8050 C.ar    1  UNL1        0.0276
     20 C          64.0321   90.8987   12.9091 C.ar    1  UNL1        0.0015
     21 C          65.1201   91.8946   12.6361 C.ar    1  UNL1        0.0204
     22 C          65.2857   92.4660   11.2592 C.ar    1  UNL1        0.0989
     23 N          64.3631   92.0417   10.1551 N.ar    1  UNL1       -0.2426
     24 C          63.2750   91.0459   10.4280 C.ar    1  UNL1        0.0972
     25 C          59.0221   90.1078    5.9981 C.3     1  UNL1        0.2520
     26 O          59.2350   90.0872    7.4828 O.2     1  UNL1       -0.4754
@<TRIPOS>BOND
     1    25    26    1
     2    26     1    1
     3     1     2    2
     4     2     3    1
     5     3     4    1
     6     3     5    2
     7     5     6   ar
     8     6     7   ar
     9     7     8    1
    10     8     9    2
    11     9    10    1
    12    10    11    1
    13    10    12    2
    14    12    13   ar
    15    13    16    1
    16    16    17    1
    17    16    19    1
    18    19    20   ar
    19    20    21   ar
    20    21    22   ar
    21    22    23   ar
    22    23    24   ar
    23    13    14   ar
    24    14    15    1
    25    15     1    1
    26    14     5   ar
    27    12     7   ar
    28    24    19   ar
    29    17    18    1
@<TRIPOS>MOLECULE
*****
 26 29 0 0 0
SMALL
GASTEIGER

@<TRIPOS>ATOM
      1 C          60.0048   92.9414    2.3156 C.2     1  UNL1        0.1203
      2 C          61.4471   92.6398    2.5970 C.2     1  UNL1        0.0299
      3 C          62.4840   92.8832    1.5408 C.2     1  UNL1       -0.0018
      4 C          63.9262   92.5816    1.8221 C.3     1  UNL1        0.0327
      5 C          62.0787   93.4281    0.2033 C.ar    1  UNL1        0.0754
      6 N          63.1158   93.6715   -0.8529 N.ar    1  UNL1       -0.2257
      7 C          62.7105   94.2165   -2.1903 C.ar    1  UNL1        0.1846
      8 N          63.5030   94.5561   -3.4177 N.2     1  UNL1       -0.1288
      9 N          62.5506   95.0676   -4.4576 N.2     1  UNL1       -0.1508
     10 C          61.1695   95.0440   -3.8729 C.2     1  UNL1        0.0837
     11 C          59.9106   95.4715   -4.5675 C.3     1  UNL1        0.0541
     12 C          61.2683   94.5180   -2.4716 C.ar    1  UNL1        0.0512
     13 C          60.2313   94.2746   -1.4154 C.ar    1  UNL1        0.0106
     14 C          60.6366   93.7297   -0.0780 C.ar    1  UNL1        0.0015
     15 C          59.5996   93.4863    0.9782 C.3     1  UNL1        0.0914
     16 C          58.7891   94.5762   -1.6967 C.3     1  UNL1        0.1564
     17 O          58.2653   95.9702   -1.5164 O.3     1  UNL1       -0.3756
     18 H          58.9834   96.5491   -1.2161 H       1  UNL1        0.2112
     19 C          57.8707   93.4837   -2.1583 C.ar    1  UNL1        0.0276
     20 C          58.2090   92.6871   -3.3833 C.ar    1  UNL1        0.0015
     21 C          57.2905   91.5946   -3.8449 C.ar    1  UNL1        0.0204
     22 C          56.0338   91.2989   -3.0814 C.ar    1  UNL1        0.0989
     23 N          55.6954   92.0956   -1.8563 N.ar    1  UNL1       -0.2426
     24 C          56.6138   93.1881   -1.3947 C.ar    1  UNL1        0.0972
     25 C          59.3400   91.9850    4.6381 C.3     1  UNL1        0.2520
     26 O          58.9679   92.6980    3.3718 O.2     1  UNL1       -0.4754
@<TRIPOS>BOND
     1    25    26    1
     2    26     1    1
     3     1     2    2
     4     2     3    1
     5     3     4    1
     6     3     5    2
     7     5     6   ar
     8     6     7   ar
     9     7     8    1
    10     8     9    2
    11     9    10    1
    12    10    11    1
    13    10    12    2
    14    12    13   ar
    15    13    16    1
    16    16    17    1
    17    16    19    1
    18    19    20   ar
    19    20    21   ar
    20    21    22   ar
    21    22    23   ar
    22    23    24   ar
    23    13    14   ar
    24    14    15    1
    25    15     1    1
    26    14     5   ar
    27    12     7   ar
    28    24    19   ar
    29    17    18    1
