@<TRIPOS>MOLECULE
*****
 39 42 0 0 0
SMALL
GASTEIGER

@<TRIPOS>ATOM
      1 C          63.3665   84.7119   13.2770 C.3     1  UNL1        0.3254
      2 F          64.6220   85.5329   13.2759 F       1  UNL1       -0.1949
      3 F          62.0129   84.1223   13.0126 F       1  UNL1       -0.1949
      4 C          62.8061   85.5674   12.1796 C.ar    1  UNL1        0.1218
      5 C          62.2062   84.9282   10.9625 C.ar    1  UNL1        0.0208
      6 C          61.6457   85.7836    9.8651 C.ar    1  UNL1        0.0112
      7 C          61.6852   87.2783    9.9850 C.ar    1  UNL1        0.0611
      8 C          62.2852   87.9175   11.2022 C.ar    1  UNL1        0.1068
      9 N          62.8456   87.0620   12.2995 N.ar    1  UNL1       -0.2421
     10 C          61.1248   88.1338    8.8877 C.1     1  UNL1       -0.0582
     11 C          60.5644   88.9892    7.7904 C.1     1  UNL1       -0.0597
     12 C          60.0039   89.8447    6.6931 C.ar    1  UNL1        0.0422
     13 C          58.5204   90.0270    6.5677 C.ar    1  UNL1        0.0114
     14 C          57.9600   90.8824    5.4704 C.ar    1  UNL1        0.0375
     15 C          58.8831   91.5556    4.4985 C.ar    1  UNL1        0.1389
     16 C          60.3667   91.3733    4.6239 C.ar    1  UNL1        0.0375
     17 C          60.9271   90.5179    5.7212 C.ar    1  UNL1        0.0114
     18 O          58.3227   92.4111    3.4011 O.3     1  UNL1       -0.4693
     19 C          59.1282   92.6634    2.1612 C.3     1  UNL1        0.2772
     20 C          60.1670   93.7454    2.1489 C.3     1  UNL1        0.3615
     21 F          61.5898   93.4231    2.4977 F       1  UNL1       -0.1942
     22 F          59.7830   95.1497    1.7877 F       1  UNL1       -0.1942
     23 O          64.4875   83.0011   15.4716 O.3     1  UNL1       -0.3755
     24 C          63.9270   83.8565   14.3743 C.3     1  UNL1        0.1932
     25 H          65.2309   83.4608   15.8922 H       1  UNL1        0.2110
     26 C          63.5265   82.6244   13.6184 C.ar    1  UNL1        0.0368
     27 C          62.5135   81.6835   14.2004 C.ar    1  UNL1        0.0028
     28 C          62.1130   80.4514   13.4445 C.ar    1  UNL1        0.0295
     29 C          62.7254   80.1601   12.1065 C.ar    1  UNL1        0.1424
     30 F          62.3249   78.9280   11.3506 F       1  UNL1       -0.2041
     31 C          63.7383   81.1009   11.5245 C.ar    1  UNL1        0.0590
     32 C          64.1389   82.3331   12.2804 C.ar    1  UNL1        0.1408
     33 F          65.1518   83.2739   11.6984 F       1  UNL1       -0.2043
     34 C          64.3276   85.0886   15.1303 C.3     1  UNL1        0.1679
     35 N          63.3106   85.8335   15.9432 N.ar    1  UNL1       -0.2078
     36 C          63.4256   87.2535   16.4129 C.ar    1  UNL1        0.2216
     37 N          62.1861   87.5868   17.1891 N.ar    1  UNL1       -0.1048
     38 N          61.3051   86.3728   17.1992 N.ar    1  UNL1       -0.0226
     39 N          62.0000   85.2893   16.4292 N.ar    1  UNL1       -0.0428
@<TRIPOS>BOND
     1    23    24    1
     2    24    34    1
     3    34    35    1
     4    35    36   ar
     5    36    37   ar
     6    37    38   ar
     7    38    39   ar
     8    24    26    1
     9    26    27   ar
    10    27    28   ar
    11    28    29   ar
    12    29    30    1
    13    29    31   ar
    14    31    32   ar
    15    32    33    1
    16    24     1    1
    17     1     2    1
    18     1     3    1
    19     1     4    1
    20     4     5   ar
    21     5     6   ar
    22     6     7   ar
    23     7    10    1
    24    10    11    3
    25    11    12    1
    26    12    13   ar
    27    13    14   ar
    28    14    15   ar
    29    15    18    1
    30    18    19    1
    31    19    20    1
    32    20    21    1
    33    20    22    1
    34    15    16   ar
    35    16    17   ar
    36     7     8   ar
    37     8     9   ar
    38    39    35   ar
    39    32    26   ar
    40     9     4   ar
    41    17    12   ar
    42    23    25    1
@<TRIPOS>MOLECULE
*****
 39 42 0 0 0
SMALL
GASTEIGER

@<TRIPOS>ATOM
      1 C          60.0117   93.9253    0.8283 C.3     1  UNL1        0.3254
      2 F          59.6474   95.1069    1.6776 F       1  UNL1       -0.1949
      3 F          60.3906   92.5728    0.3021 F       1  UNL1       -0.1949
      4 C          60.1171   93.0736    2.0586 C.ar    1  UNL1        0.1218
      5 C          61.4417   92.4949    2.4590 C.ar    1  UNL1        0.0208
      6 C          61.5471   91.6432    3.6892 C.ar    1  UNL1        0.0112
      7 C          60.3278   91.3701    4.5191 C.ar    1  UNL1        0.0611
      8 C          59.0030   91.9488    4.1187 C.ar    1  UNL1        0.1068
      9 N          58.8977   92.8005    2.8884 N.ar    1  UNL1       -0.2421
     10 C          60.4331   90.5184    5.7493 C.1     1  UNL1       -0.0582
     11 C          60.5385   89.6668    6.9795 C.1     1  UNL1       -0.0597
     12 C          60.6438   88.8150    8.2098 C.ar    1  UNL1        0.0422
     13 C          61.0622   89.4284    9.5131 C.ar    1  UNL1        0.0114
     14 C          61.1675   88.5766   10.7433 C.ar    1  UNL1        0.0375
     15 C          60.8545   87.1115   10.6701 C.ar    1  UNL1        0.1389
     16 C          60.4361   86.4981    9.3668 C.ar    1  UNL1        0.0375
     17 C          60.3308   87.3498    8.1366 C.ar    1  UNL1        0.0114
     18 O          60.9599   86.2597   11.9004 O.3     1  UNL1       -0.4693
     19 C          62.2165   85.4872   12.1724 C.3     1  UNL1        0.2772
     20 C          62.5768   84.3135   11.3106 C.3     1  UNL1        0.3615
     21 F          63.1678   84.5354    9.9499 F       1  UNL1       -0.1942
     22 F          62.3462   82.9178   11.8096 F       1  UNL1       -0.1942
     23 O          59.8009   95.6288   -1.6320 O.3     1  UNL1       -0.3755
     24 C          59.9063   94.7770   -0.4019 C.3     1  UNL1        0.1932
     25 H          59.0619   95.3180   -2.1782 H       1  UNL1        0.2110
     26 C          61.3888   95.0034   -0.3721 C.ar    1  UNL1        0.0368
     27 C          61.9732   96.0235    0.5595 C.ar    1  UNL1        0.0028
     28 C          63.4557   96.2498    0.5892 C.ar    1  UNL1        0.0295
     29 C          64.3538   95.4562   -0.3127 C.ar    1  UNL1        0.1424
     30 F          65.8363   95.6825   -0.2830 F       1  UNL1       -0.2041
     31 C          63.7695   94.4361   -1.2443 C.ar    1  UNL1        0.0590
     32 C          62.2869   94.2097   -1.2741 C.ar    1  UNL1        0.1408
     33 F          61.7025   93.1897   -2.2057 F       1  UNL1       -0.2043
     34 C          58.4237   94.5507   -0.4316 C.3     1  UNL1        0.1679
     35 N          57.8250   93.6366   -1.4592 N.ar    1  UNL1       -0.2078
     36 C          56.3993   93.1725   -1.5028 C.ar    1  UNL1        0.2216
     37 N          56.2401   92.2751   -2.6941 N.ar    1  UNL1       -0.1048
     38 N          57.5675   92.1847   -3.3869 N.ar    1  UNL1       -0.0226
     39 N          58.5470   93.0261   -2.6236 N.ar    1  UNL1       -0.0428
@<TRIPOS>BOND
     1    23    24    1
     2    24    34    1
     3    34    35    1
     4    35    36   ar
     5    36    37   ar
     6    37    38   ar
     7    38    39   ar
     8    24    26    1
     9    26    27   ar
    10    27    28   ar
    11    28    29   ar
    12    29    30    1
    13    29    31   ar
    14    31    32   ar
    15    32    33    1
    16    24     1    1
    17     1     2    1
    18     1     3    1
    19     1     4    1
    20     4     5   ar
    21     5     6   ar
    22     6     7   ar
    23     7    10    1
    24    10    11    3
    25    11    12    1
    26    12    13   ar
    27    13    14   ar
    28    14    15   ar
    29    15    18    1
    30    18    19    1
    31    19    20    1
    32    20    21    1
    33    20    22    1
    34    15    16   ar
    35    16    17   ar
    36     7     8   ar
    37     8     9   ar
    38    39    35   ar
    39    32    26   ar
    40     9     4   ar
    41    17    12   ar
    42    23    25    1
@<TRIPOS>MOLECULE
*****
 39 42 0 0 0
SMALL
GASTEIGER

@<TRIPOS>ATOM
      1 C          63.4320   84.8527   13.2178 C.3     1  UNL1        0.3254
      2 F          62.0453   84.6097   13.7355 F       1  UNL1       -0.1949
      3 F          64.6417   85.2926   12.4476 F       1  UNL1       -0.1949
      4 C          62.8710   85.6957   12.1110 C.ar    1  UNL1        0.1218
      5 C          62.8517   87.1898   12.2423 C.ar    1  UNL1        0.0208
      6 C          62.2906   88.0327   11.1355 C.ar    1  UNL1        0.0112
      7 C          61.7490   87.3815    9.8976 C.ar    1  UNL1        0.0611
      8 C          61.7684   85.8873    9.7664 C.ar    1  UNL1        0.1068
      9 N          62.3294   85.0444   10.8731 N.ar    1  UNL1       -0.2421
     10 C          61.1880   88.2243    8.7909 C.1     1  UNL1       -0.0582
     11 C          60.6270   89.0672    7.6842 C.1     1  UNL1       -0.0597
     12 C          60.0660   89.9101    6.5774 C.ar    1  UNL1        0.0422
     13 C          60.9883   90.5676    5.5941 C.ar    1  UNL1        0.0114
     14 C          60.4272   91.4105    4.4875 C.ar    1  UNL1        0.0375
     15 C          58.9438   91.5958    4.3641 C.ar    1  UNL1        0.1389
     16 C          58.0215   90.9383    5.3474 C.ar    1  UNL1        0.0375
     17 C          58.5826   90.0954    6.4541 C.ar    1  UNL1        0.0114
     18 O          58.3828   92.4388    3.2574 O.3     1  UNL1       -0.4693
     19 C          59.3069   93.1438    2.3094 C.3     1  UNL1        0.2772
     20 C          59.1291   92.9817    0.8287 C.3     1  UNL1        0.3615
     21 F          59.8610   91.8940    0.1000 F       1  UNL1       -0.1942
     22 F          58.2193   93.9075    0.0769 F       1  UNL1       -0.1942
     23 O          64.5539   83.1669   15.4311 O.3     1  UNL1       -0.3755
     24 C          63.9930   84.0098   14.3244 C.3     1  UNL1        0.1932
     25 H          65.3034   83.6273   15.8401 H       1  UNL1        0.2110
     26 C          63.5786   82.7695   13.5898 C.ar    1  UNL1        0.0368
     27 C          64.3001   82.3620   12.3394 C.ar    1  UNL1        0.0028
     28 C          63.8857   81.1217   11.6048 C.ar    1  UNL1        0.0295
     29 C          62.7498   80.2887   12.1204 C.ar    1  UNL1        0.1424
     30 F          62.3354   79.0484   11.3858 F       1  UNL1       -0.2041
     31 C          62.0282   80.6962   13.3707 C.ar    1  UNL1        0.0590
     32 C          62.4426   81.9366   14.1055 C.ar    1  UNL1        0.1408
     33 F          61.7211   82.3440   15.3558 F       1  UNL1       -0.2043
     34 C          64.4074   85.2502   15.0592 C.3     1  UNL1        0.1679
     35 N          63.4178   85.9780   15.9200 N.ar    1  UNL1       -0.2078
     36 C          62.3182   85.3495   16.7236 C.ar    1  UNL1        0.2216
     37 N          61.5749   86.4451   17.4287 N.ar    1  UNL1       -0.1048
     38 N          62.2151   87.7508   17.0607 N.ar    1  UNL1       -0.0226
     39 N          63.3541   87.4621   16.1283 N.ar    1  UNL1       -0.0428
@<TRIPOS>BOND
     1    23    24    1
     2    24    34    1
     3    34    35    1
     4    35    36   ar
     5    36    37   ar
     6    37    38   ar
     7    38    39   ar
     8    24    26    1
     9    26    27   ar
    10    27    28   ar
    11    28    29   ar
    12    29    30    1
    13    29    31   ar
    14    31    32   ar
    15    32    33    1
    16    24     1    1
    17     1     2    1
    18     1     3    1
    19     1     4    1
    20     4     5   ar
    21     5     6   ar
    22     6     7   ar
    23     7    10    1
    24    10    11    3
    25    11    12    1
    26    12    13   ar
    27    13    14   ar
    28    14    15   ar
    29    15    18    1
    30    18    19    1
    31    19    20    1
    32    20    21    1
    33    20    22    1
    34    15    16   ar
    35    16    17   ar
    36     7     8   ar
    37     8     9   ar
    38    39    35   ar
    39    32    26   ar
    40     9     4   ar
    41    17    12   ar
    42    23    25    1
@<TRIPOS>MOLECULE
*****
 39 42 0 0 0
SMALL
GASTEIGER

@<TRIPOS>ATOM
      1 C          63.1183   85.1831   13.0029 C.3     1  UNL1        0.3254
      2 F          61.9315   84.2742   12.8785 F       1  UNL1       -0.1949
      3 F          64.1427   86.2682   12.8509 F       1  UNL1       -0.1949
      4 C          62.5932   86.0229   11.8763 C.ar    1  UNL1        0.1218
      5 C          61.9520   85.3684   10.6887 C.ar    1  UNL1        0.0208
      6 C          61.4269   86.2081    9.5621 C.ar    1  UNL1        0.0112
      7 C          61.5430   87.7024    9.6232 C.ar    1  UNL1        0.0611
      8 C          62.1842   88.3569   10.8109 C.ar    1  UNL1        0.1068
      9 N          62.7093   87.5171   11.9374 N.ar    1  UNL1       -0.2421
     10 C          61.0179   88.5421    8.4967 C.1     1  UNL1       -0.0582
     11 C          60.4928   89.3818    7.3702 C.1     1  UNL1       -0.0597
     12 C          59.9677   90.2216    6.2436 C.ar    1  UNL1        0.0422
     13 C          60.9195   90.8478    5.2680 C.ar    1  UNL1        0.0114
     14 C          60.3944   91.6875    4.1415 C.ar    1  UNL1        0.0375
     15 C          58.9173   91.9010    3.9906 C.ar    1  UNL1        0.1389
     16 C          57.9655   91.2748    4.9661 C.ar    1  UNL1        0.0375
     17 C          58.4906   90.4351    6.0927 C.ar    1  UNL1        0.0114
     18 O          58.3922   92.7407    2.8640 O.3     1  UNL1       -0.4693
     19 C          59.3293   93.2542    1.8113 C.3     1  UNL1        0.2772
     20 C          59.3505   92.6198    0.4521 C.3     1  UNL1        0.3615
     21 F          60.4801   91.7118    0.0658 F       1  UNL1       -0.1942
     22 F          58.2420   92.8936   -0.5207 F       1  UNL1       -0.1942
     23 O          64.1685   83.5036   15.2559 O.3     1  UNL1       -0.3755
     24 C          63.6434   84.3434   14.1294 C.3     1  UNL1        0.1932
     25 H          63.9144   82.5782   15.1150 H       1  UNL1        0.2110
     26 C          63.5184   85.5133   15.0597 C.ar    1  UNL1        0.0368
     27 C          64.2766   86.7773   14.7814 C.ar    1  UNL1        0.0028
     28 C          64.1516   87.9472   15.7117 C.ar    1  UNL1        0.0295
     29 C          63.2684   87.8532   16.9205 C.ar    1  UNL1        0.1424
     30 F          63.1433   89.0231   17.8508 F       1  UNL1       -0.2041
     31 C          62.5102   86.5893   17.1989 C.ar    1  UNL1        0.0590
     32 C          62.6352   85.4193   16.2685 C.ar    1  UNL1        0.1408
     33 F          61.8770   84.1553   16.5469 F       1  UNL1       -0.2043
     34 C          63.7684   83.1734   13.1990 C.3     1  UNL1        0.1679
     35 N          62.9288   81.9495   13.4160 N.ar    1  UNL1       -0.2078
     36 C          63.0941   80.6318   12.7186 C.ar    1  UNL1        0.2216
     37 N          62.0439   79.6964   13.2401 N.ar    1  UNL1       -0.1048
     38 N          61.2295   80.4360   14.2598 N.ar    1  UNL1       -0.0226
     39 N          61.7764   81.8285   14.3685 N.ar    1  UNL1       -0.0428
@<TRIPOS>BOND
     1    23    24    1
     2    24    34    1
     3    34    35    1
     4    35    36   ar
     5    36    37   ar
     6    37    38   ar
     7    38    39   ar
     8    24    26    1
     9    26    27   ar
    10    27    28   ar
    11    28    29   ar
    12    29    30    1
    13    29    31   ar
    14    31    32   ar
    15    32    33    1
    16    24     1    1
    17     1     2    1
    18     1     3    1
    19     1     4    1
    20     4     5   ar
    21     5     6   ar
    22     6     7   ar
    23     7    10    1
    24    10    11    3
    25    11    12    1
    26    12    13   ar
    27    13    14   ar
    28    14    15   ar
    29    15    18    1
    30    18    19    1
    31    19    20    1
    32    20    21    1
    33    20    22    1
    34    15    16   ar
    35    16    17   ar
    36     7     8   ar
    37     8     9   ar
    38    39    35   ar
    39    32    26   ar
    40     9     4   ar
    41    17    12   ar
    42    23    25    1
