@<TRIPOS>MOLECULE
*****
 20 23 0 0 0
SMALL
GASTEIGER

@<TRIPOS>ATOM
      1 O          61.1128   87.3403    8.7059 O.2     1  UNL1       -0.2864
      2 C          61.7798   87.1488   10.0357 C.ar    1  UNL1        0.2016
      3 C          61.8870   85.7759   10.6303 C.ar    1  UNL1        0.0796
      4 C          62.5540   85.5845   11.9601 C.ar    1  UNL1        0.1484
      5 O          63.1139   86.7660   12.6953 O.2     1  UNL1       -0.4532
      6 C          63.0067   88.1389   12.1007 C.ar    1  UNL1        0.1512
      7 C          62.3397   88.3304   10.7709 C.ar    1  UNL1        0.0737
      8 C          62.2326   89.7032   10.1763 C.ar    1  UNL1        0.0094
      9 C          62.7925   90.8848   10.9116 C.ar    1  UNL1        0.0378
     10 C          63.4595   90.6934   12.2414 C.ar    1  UNL1        0.1484
     11 O          64.1001   91.6613   13.1915 O.2     1  UNL1       -0.4503
     12 C          64.6031   90.8865   14.3733 C.ar    1  UNL1        0.1797
     13 C          64.2734   89.4398   14.1536 C.ar    1  UNL1        0.0467
     14 C          63.5666   89.3204   12.8360 C.ar    1  UNL1        0.0723
     15 C          62.6611   84.2115   12.5547 C.ar    1  UNL1        0.0347
     16 C          62.6803   84.0390   14.0447 C.ar    1  UNL1        0.0030
     17 C          62.7875   82.6661   14.6394 C.ar    1  UNL1        0.0001
     18 C          62.8755   81.4657   13.7442 C.ar    1  UNL1        0.0000
     19 C          62.8563   81.6383   12.2542 C.ar    1  UNL1        0.0001
     20 C          62.7491   83.0111   11.6596 C.ar    1  UNL1        0.0030
@<TRIPOS>BOND
     1     1     2    2
     2     2     3   ar
     3     3     4   ar
     4     4    15    1
     5    15    16   ar
     6    16    17   ar
     7    17    18   ar
     8    18    19   ar
     9    19    20   ar
    10     4     5   ar
    11     5     6   ar
    12     6     7   ar
    13     7     8   ar
    14     8     9   ar
    15     9    10   ar
    16    10    11   ar
    17    11    12   ar
    18    12    13   ar
    19    13    14   ar
    20     7     2   ar
    21    14    10   ar
    22    20    15   ar
    23    14     6   ar
@<TRIPOS>MOLECULE
*****
 20 23 0 0 0
SMALL
GASTEIGER

@<TRIPOS>ATOM
      1 O          64.1199   88.2713   13.8791 O.2     1  UNL1       -0.2864
      2 C          63.4259   87.2556   13.0208 C.ar    1  UNL1        0.2016
      3 C          62.6042   87.7008   11.8477 C.ar    1  UNL1        0.0796
      4 C          61.9102   86.6851   10.9894 C.ar    1  UNL1        0.1484
      5 O          62.0380   85.2241   11.3043 O.2     1  UNL1       -0.4532
      6 C          62.8598   84.7789   12.4775 C.ar    1  UNL1        0.1512
      7 C          63.5538   85.7946   13.3358 C.ar    1  UNL1        0.0737
      8 C          64.3755   85.3494   14.5090 C.ar    1  UNL1        0.0094
      9 C          64.5033   83.8883   14.8240 C.ar    1  UNL1        0.0378
     10 C          63.8094   82.8726   13.9657 C.ar    1  UNL1        0.1484
     11 O          63.7525   81.3751   14.0299 O.2     1  UNL1       -0.4503
     12 C          62.8955   80.8948   12.8963 C.ar    1  UNL1        0.1797
     13 C          62.4228   82.0955   12.1315 C.ar    1  UNL1        0.0467
     14 C          62.9876   83.3179   12.7924 C.ar    1  UNL1        0.0723
     15 C          61.0884   87.1303    9.8161 C.ar    1  UNL1        0.0347
     16 C          60.8095   88.5891    9.6062 C.ar    1  UNL1        0.0030
     17 C          59.9877   89.0343    8.4330 C.ar    1  UNL1        0.0001
     18 C          59.4449   88.0208    7.4696 C.ar    1  UNL1        0.0000
     19 C          59.7239   86.5619    7.6796 C.ar    1  UNL1        0.0001
     20 C          60.5456   86.1167    8.8527 C.ar    1  UNL1        0.0030
@<TRIPOS>BOND
     1     1     2    2
     2     2     3   ar
     3     3     4   ar
     4     4    15    1
     5    15    16   ar
     6    16    17   ar
     7    17    18   ar
     8    18    19   ar
     9    19    20   ar
    10     4     5   ar
    11     5     6   ar
    12     6     7   ar
    13     7     8   ar
    14     8     9   ar
    15     9    10   ar
    16    10    11   ar
    17    11    12   ar
    18    12    13   ar
    19    13    14   ar
    20     7     2   ar
    21    14    10   ar
    22    20    15   ar
    23    14     6   ar
@<TRIPOS>MOLECULE
*****
 20 23 0 0 0
SMALL
GASTEIGER

@<TRIPOS>ATOM
      1 O          63.9671   88.2577   13.4228 O.2     1  UNL1       -0.2864
      2 C          63.2047   87.2707   12.5894 C.ar    1  UNL1        0.2016
      3 C          63.2788   85.8064   12.9058 C.ar    1  UNL1        0.0796
      4 C          62.5164   84.8195   12.0724 C.ar    1  UNL1        0.1484
      5 O          61.6798   85.2969   10.9225 O.2     1  UNL1       -0.4532
      6 C          61.6056   86.7613   10.6061 C.ar    1  UNL1        0.1512
      7 C          62.3681   87.7482   11.4395 C.ar    1  UNL1        0.0737
      8 C          62.2939   89.2125   11.1231 C.ar    1  UNL1        0.0094
      9 C          61.4573   89.6900    9.9733 C.ar    1  UNL1        0.0378
     10 C          60.6949   88.7031    9.1398 C.ar    1  UNL1        0.1484
     11 O          59.7939   88.8759    7.9531 O.2     1  UNL1       -0.4503
     12 C          59.3113   87.5183    7.5360 C.ar    1  UNL1        0.1797
     13 C          59.9139   86.5065    8.4650 C.ar    1  UNL1        0.0467
     14 C          60.7690   87.2387    9.4563 C.ar    1  UNL1        0.0723
     15 C          62.5905   83.3551   12.3887 C.ar    1  UNL1        0.0347
     16 C          62.9415   82.3720   11.3116 C.ar    1  UNL1        0.0030
     17 C          63.0156   80.9076   11.6278 C.ar    1  UNL1        0.0001
     18 C          62.7387   80.4262   13.0213 C.ar    1  UNL1        0.0000
     19 C          62.3877   81.4095   14.0984 C.ar    1  UNL1        0.0001
     20 C          62.3136   82.8738   13.7822 C.ar    1  UNL1        0.0030
@<TRIPOS>BOND
     1     1     2    2
     2     2     3   ar
     3     3     4   ar
     4     4    15    1
     5    15    16   ar
     6    16    17   ar
     7    17    18   ar
     8    18    19   ar
     9    19    20   ar
    10     4     5   ar
    11     5     6   ar
    12     6     7   ar
    13     7     8   ar
    14     8     9   ar
    15     9    10   ar
    16    10    11   ar
    17    11    12   ar
    18    12    13   ar
    19    13    14   ar
    20     7     2   ar
    21    14    10   ar
    22    20    15   ar
    23    14     6   ar
@<TRIPOS>MOLECULE
*****
 20 23 0 0 0
SMALL
GASTEIGER

@<TRIPOS>ATOM
      1 O          64.0052   88.6948   15.1876 O.2     1  UNL1       -0.2864
      2 C          63.8632   89.3536   13.8476 C.ar    1  UNL1        0.2016
      3 C          62.9822   88.7404   12.8000 C.ar    1  UNL1        0.0796
      4 C          62.8402   89.3992   11.4599 C.ar    1  UNL1        0.1484
      5 O          63.5793   90.6713   11.1675 O.2     1  UNL1       -0.4532
      6 C          64.4603   91.2846   12.2152 C.ar    1  UNL1        0.1512
      7 C          64.6023   90.6258   13.5552 C.ar    1  UNL1        0.0737
      8 C          65.4833   91.2390   14.6029 C.ar    1  UNL1        0.0094
      9 C          66.2225   92.5112   14.3105 C.ar    1  UNL1        0.0378
     10 C          66.0804   93.1700   12.9705 C.ar    1  UNL1        0.1484
     11 O          66.6806   94.4198   12.3979 O.2     1  UNL1       -0.4503
     12 C          66.1704   94.5789   10.9963 C.ar    1  UNL1        0.1797
     13 C          65.2550   93.4275   10.7027 C.ar    1  UNL1        0.0467
     14 C          65.1994   92.5567   11.9228 C.ar    1  UNL1        0.0723
     15 C          61.9592   88.7859   10.4122 C.ar    1  UNL1        0.0347
     16 C          61.0004   89.6448    9.6421 C.ar    1  UNL1        0.0030
     17 C          60.1193   89.0316    8.5943 C.ar    1  UNL1        0.0001
     18 C          60.1970   87.5596    8.3167 C.ar    1  UNL1        0.0000
     19 C          61.1559   86.7008    9.0868 C.ar    1  UNL1        0.0001
     20 C          62.0369   87.3139   10.1345 C.ar    1  UNL1        0.0030
@<TRIPOS>BOND
     1     1     2    2
     2     2     3   ar
     3     3     4   ar
     4     4    15    1
     5    15    16   ar
     6    16    17   ar
     7    17    18   ar
     8    18    19   ar
     9    19    20   ar
    10     4     5   ar
    11     5     6   ar
    12     6     7   ar
    13     7     8   ar
    14     8     9   ar
    15     9    10   ar
    16    10    11   ar
    17    11    12   ar
    18    12    13   ar
    19    13    14   ar
    20     7     2   ar
    21    14    10   ar
    22    20    15   ar
    23    14     6   ar
@<TRIPOS>MOLECULE
*****
 20 23 0 0 0
SMALL
GASTEIGER

@<TRIPOS>ATOM
      1 O          63.2354   90.9145   11.0908 O.2     1  UNL1       -0.2864
      2 C          63.9023   90.6689   12.4117 C.ar    1  UNL1        0.2016
      3 C          63.5514   89.4512   13.2141 C.ar    1  UNL1        0.0796
      4 C          64.2183   89.2055   14.5351 C.ar    1  UNL1        0.1484
      5 O          65.2361   90.1777   15.0536 O.2     1  UNL1       -0.4532
      6 C          65.5871   91.3954   14.2512 C.ar    1  UNL1        0.1512
      7 C          64.9202   91.6411   12.9302 C.ar    1  UNL1        0.0737
      8 C          65.2712   92.8588   12.1279 C.ar    1  UNL1        0.0094
      9 C          66.2891   93.8310   12.6464 C.ar    1  UNL1        0.0378
     10 C          66.9560   93.5853   13.9673 C.ar    1  UNL1        0.1484
     11 O          67.9895   94.3606   14.7294 O.2     1  UNL1       -0.4503
     12 C          68.2773   93.6219   16.0028 C.ar    1  UNL1        0.1797
     13 C          67.4216   92.3902   16.0277 C.ar    1  UNL1        0.0467
     14 C          66.6050   92.3676   14.7697 C.ar    1  UNL1        0.0723
     15 C          63.8673   87.9878   15.3375 C.ar    1  UNL1        0.0347
     16 C          63.1234   88.1315   16.6321 C.ar    1  UNL1        0.0030
     17 C          62.7724   86.9138   17.4346 C.ar    1  UNL1        0.0001
     18 C          63.1654   85.5524   16.9426 C.ar    1  UNL1        0.0000
     19 C          63.9093   85.4087   15.6480 C.ar    1  UNL1        0.0001
     20 C          64.2603   86.6263   14.8455 C.ar    1  UNL1        0.0030
@<TRIPOS>BOND
     1     1     2    2
     2     2     3   ar
     3     3     4   ar
     4     4    15    1
     5    15    16   ar
     6    16    17   ar
     7    17    18   ar
     8    18    19   ar
     9    19    20   ar
    10     4     5   ar
    11     5     6   ar
    12     6     7   ar
    13     7     8   ar
    14     8     9   ar
    15     9    10   ar
    16    10    11   ar
    17    11    12   ar
    18    12    13   ar
    19    13    14   ar
    20     7     2   ar
    21    14    10   ar
    22    20    15   ar
    23    14     6   ar
@<TRIPOS>MOLECULE
*****
 20 23 0 0 0
SMALL
GASTEIGER

@<TRIPOS>ATOM
      1 O          66.8446   91.9844   14.9678 O.2     1  UNL1       -0.2864
      2 C          66.1489   92.1273   13.6466 C.ar    1  UNL1        0.2016
      3 C          66.5529   93.2187   12.7004 C.ar    1  UNL1        0.0796
      4 C          65.8572   93.3616   11.3792 C.ar    1  UNL1        0.1484
      5 O          64.7574   92.4130   11.0043 O.2     1  UNL1       -0.4532
      6 C          64.3533   91.3216   11.9505 C.ar    1  UNL1        0.1512
      7 C          65.0490   91.1787   13.2717 C.ar    1  UNL1        0.0737
      8 C          64.6450   90.0873   14.2179 C.ar    1  UNL1        0.0094
      9 C          63.5451   89.1386   13.8430 C.ar    1  UNL1        0.0378
     10 C          62.8494   89.2815   12.5219 C.ar    1  UNL1        0.1484
     11 O          61.7386   88.5018   11.8830 O.2     1  UNL1       -0.4503
     12 C          61.4562   89.1114   10.5419 C.ar    1  UNL1        0.1797
     13 C          62.3924   90.2678   10.3519 C.ar    1  UNL1        0.0467
     14 C          63.2535   90.3730   11.5756 C.ar    1  UNL1        0.0723
     15 C          66.2613   94.4531   10.4328 C.ar    1  UNL1        0.0347
     16 C          67.3981   94.2356    9.4787 C.ar    1  UNL1        0.0030
     17 C          67.8022   95.3270    8.5323 C.ar    1  UNL1        0.0001
     18 C          67.0695   96.6358    8.5401 C.ar    1  UNL1        0.0000
     19 C          65.9327   96.8533    9.4944 C.ar    1  UNL1        0.0001
     20 C          65.5286   95.7619   10.4406 C.ar    1  UNL1        0.0030
@<TRIPOS>BOND
     1     1     2    2
     2     2     3   ar
     3     3     4   ar
     4     4    15    1
     5    15    16   ar
     6    16    17   ar
     7    17    18   ar
     8    18    19   ar
     9    19    20   ar
    10     4     5   ar
    11     5     6   ar
    12     6     7   ar
    13     7     8   ar
    14     8     9   ar
    15     9    10   ar
    16    10    11   ar
    17    11    12   ar
    18    12    13   ar
    19    13    14   ar
    20     7     2   ar
    21    14    10   ar
    22    20    15   ar
    23    14     6   ar
@<TRIPOS>MOLECULE
*****
 20 23 0 0 0
SMALL
GASTEIGER

@<TRIPOS>ATOM
      1 O          63.1286   84.9639    7.6870 O.2     1  UNL1       -0.2864
      2 C          62.7430   85.3466    9.0852 C.ar    1  UNL1        0.2016
      3 C          62.0018   86.6264    9.3350 C.ar    1  UNL1        0.0796
      4 C          61.6162   87.0091   10.7332 C.ar    1  UNL1        0.1484
      5 O          61.9719   86.1120   11.8815 O.2     1  UNL1       -0.4532
      6 C          62.7132   84.8321   11.6316 C.ar    1  UNL1        0.1512
      7 C          63.0988   84.4494   10.2335 C.ar    1  UNL1        0.0737
      8 C          63.8401   83.1696    9.9836 C.ar    1  UNL1        0.0094
      9 C          64.1959   82.2724   11.1319 C.ar    1  UNL1        0.0378
     10 C          63.8103   82.6551   12.5301 C.ar    1  UNL1        0.1484
     11 O          64.0230   81.9771   13.8511 O.2     1  UNL1       -0.4503
     12 C          63.4131   82.8380   14.9173 C.ar    1  UNL1        0.1797
     13 C          62.8235   84.0480   14.2554 C.ar    1  UNL1        0.0467
     14 C          63.0690   83.9350   12.7799 C.ar    1  UNL1        0.0723
     15 C          60.8749   88.2890   10.9831 C.ar    1  UNL1        0.0347
     16 C          61.3938   89.5786   10.4195 C.ar    1  UNL1        0.0030
     17 C          60.6525   90.8585   10.6693 C.ar    1  UNL1        0.0001
     18 C          59.3924   90.8488   11.4829 C.ar    1  UNL1        0.0000
     19 C          58.8735   89.5591   12.0466 C.ar    1  UNL1        0.0001
     20 C          59.6147   88.2793   11.7967 C.ar    1  UNL1        0.0030
@<TRIPOS>BOND
     1     1     2    2
     2     2     3   ar
     3     3     4   ar
     4     4    15    1
     5    15    16   ar
     6    16    17   ar
     7    17    18   ar
     8    18    19   ar
     9    19    20   ar
    10     4     5   ar
    11     5     6   ar
    12     6     7   ar
    13     7     8   ar
    14     8     9   ar
    15     9    10   ar
    16    10    11   ar
    17    11    12   ar
    18    12    13   ar
    19    13    14   ar
    20     7     2   ar
    21    14    10   ar
    22    20    15   ar
    23    14     6   ar
@<TRIPOS>MOLECULE
*****
 20 23 0 0 0
SMALL
GASTEIGER

@<TRIPOS>ATOM
      1 O          63.4729   84.0850   14.0249 O.2     1  UNL1       -0.2864
      2 C          63.2524   85.2188   13.0679 C.ar    1  UNL1        0.2016
      3 C          62.7244   84.9460   11.6908 C.ar    1  UNL1        0.0796
      4 C          62.5039   86.0798   10.7338 C.ar    1  UNL1        0.1484
      5 O          62.8116   87.4865   11.1539 O.2     1  UNL1       -0.4532
      6 C          63.3397   87.7593   12.5311 C.ar    1  UNL1        0.1512
      7 C          63.5601   86.6256   13.4881 C.ar    1  UNL1        0.0737
      8 C          64.0882   86.8984   14.8652 C.ar    1  UNL1        0.0094
      9 C          64.3959   88.3051   15.2855 C.ar    1  UNL1        0.0378
     10 C          64.1754   89.4389   14.3285 C.ar    1  UNL1        0.1484
     11 O          64.3865   90.9182   14.4593 O.2     1  UNL1       -0.4503
     12 C          63.9889   91.5596   13.1630 C.ar    1  UNL1        0.1797
     13 C          63.5320   90.4767   12.2310 C.ar    1  UNL1        0.0467
     14 C          63.6473   89.1660   12.9513 C.ar    1  UNL1        0.0723
     15 C          61.9758   85.8070    9.3565 C.ar    1  UNL1        0.0347
     16 C          60.5828   86.2263    8.9908 C.ar    1  UNL1        0.0030
     17 C          60.0546   85.9535    7.6136 C.ar    1  UNL1        0.0001
     18 C          60.9194   85.2614    6.6021 C.ar    1  UNL1        0.0000
     19 C          62.3124   84.8421    6.9679 C.ar    1  UNL1        0.0001
     20 C          62.8406   85.1148    8.3450 C.ar    1  UNL1        0.0030
@<TRIPOS>BOND
     1     1     2    2
     2     2     3   ar
     3     3     4   ar
     4     4    15    1
     5    15    16   ar
     6    16    17   ar
     7    17    18   ar
     8    18    19   ar
     9    19    20   ar
    10     4     5   ar
    11     5     6   ar
    12     6     7   ar
    13     7     8   ar
    14     8     9   ar
    15     9    10   ar
    16    10    11   ar
    17    11    12   ar
    18    12    13   ar
    19    13    14   ar
    20     7     2   ar
    21    14    10   ar
    22    20    15   ar
    23    14     6   ar
@<TRIPOS>MOLECULE
*****
 20 23 0 0 0
SMALL
GASTEIGER

@<TRIPOS>ATOM
      1 O          62.7156   83.8149   12.5091 O.2     1  UNL1       -0.2864
      2 C          62.5475   85.2552   12.1252 C.ar    1  UNL1        0.2016
      3 C          61.7090   85.6216   10.9368 C.ar    1  UNL1        0.0796
      4 C          61.5409   87.0618   10.5528 C.ar    1  UNL1        0.1484
      5 O          62.2115   88.1356   11.3573 O.2     1  UNL1       -0.4532
      6 C          63.0501   87.7692   12.5458 C.ar    1  UNL1        0.1512
      7 C          63.2181   86.3290   12.9297 C.ar    1  UNL1        0.0737
      8 C          64.0567   85.9626   14.1181 C.ar    1  UNL1        0.0094
      9 C          64.7273   87.0364   14.9227 C.ar    1  UNL1        0.0378
     10 C          64.5593   88.4766   14.5388 C.ar    1  UNL1        0.1484
     11 O          65.0943   89.7438   15.1370 O.2     1  UNL1       -0.4503
     12 C          64.5864   90.8934   14.3182 C.ar    1  UNL1        0.1797
     13 C          63.7374   90.3367   13.2140 C.ar    1  UNL1        0.0467
     14 C          63.7206   88.8430   13.3503 C.ar    1  UNL1        0.0723
     15 C          60.7023   87.4283    9.3643 C.ar    1  UNL1        0.0347
     16 C          60.0407   86.3539    8.5533 C.ar    1  UNL1        0.0030
     17 C          59.2021   86.7203    7.3648 C.ar    1  UNL1        0.0001
     18 C          59.0251   88.1612    6.9873 C.ar    1  UNL1        0.0000
     19 C          59.6868   89.2356    7.7984 C.ar    1  UNL1        0.0001
     20 C          60.5253   88.8692    8.9868 C.ar    1  UNL1        0.0030
@<TRIPOS>BOND
     1     1     2    2
     2     2     3   ar
     3     3     4   ar
     4     4    15    1
     5    15    16   ar
     6    16    17   ar
     7    17    18   ar
     8    18    19   ar
     9    19    20   ar
    10     4     5   ar
    11     5     6   ar
    12     6     7   ar
    13     7     8   ar
    14     8     9   ar
    15     9    10   ar
    16    10    11   ar
    17    11    12   ar
    18    12    13   ar
    19    13    14   ar
    20     7     2   ar
    21    14    10   ar
    22    20    15   ar
    23    14     6   ar
