@<TRIPOS>MOLECULE
*****
 40 45 0 0 0
SMALL
GASTEIGER

@<TRIPOS>ATOM
      1 C          63.9824   89.5899   15.7374 C.ar    1  UNL1        0.1667
      2 N          63.2679   88.8376   16.8206 N.ar    1  UNL1       -0.2239
      3 C          63.1843   87.3980   16.4077 C.ar    1  UNL1        0.0893
      4 C          62.5902   86.1946   17.0776 C.ar    1  UNL1        0.0202
      5 C          62.6591   84.8536   16.4090 C.ar    1  UNL1        0.0081
      6 C          63.3220   84.7161   15.0705 C.ar    1  UNL1        0.0329
      7 C          63.9161   85.9196   14.4006 C.ar    1  UNL1        0.0146
      8 C          63.8472   87.2605   15.0692 C.ar    1  UNL1        0.0502
      9 S          64.3405   88.6151   14.6549 S.2     1  UNL1       -0.0513
     10 O          66.0506   90.6937   13.8653 O.2     1  UNL1       -0.2524
     11 C          65.3197   91.6108   14.8007 C.2     1  UNL1        0.3059
     12 N          65.6230   93.0798   14.7999 N.am    1  UNL1       -0.2872
     13 N          64.2857   91.0589   15.7366 N.am    1  UNL1       -0.2485
     14 H          65.1433   93.6818   15.4138 H       1  UNL1        0.1510
     15 H          63.8060   91.6608   16.3505 H       1  UNL1        0.1583
     16 C          66.6571   93.6317   13.8639 C.3     1  UNL1        0.1082
     17 C          66.2357   94.2778   12.5774 C.3     1  UNL1        0.0938
     18 N          66.9024   93.8916   11.2905 N.3     1  UNL1       -0.2670
     19 C          67.3868   92.4862   11.0891 C.3     1  UNL1        0.1047
     20 C          68.0536   92.1000    9.8022 C.3     1  UNL1        0.1595
     21 O          68.2360   93.1189    8.7167 O.3     1  UNL1       -0.3508
     22 C          67.7517   94.5242    8.9181 C.3     1  UNL1        0.1595
     23 C          67.0849   94.9106   10.2050 C.3     1  UNL1        0.1047
     24 S          63.3909   83.3751   14.4018 S.3     1  UNL1       -0.0470
     25 C          63.7935   83.2756   12.9604 C.ar    1  UNL1        0.2172
     26 N          64.8659   82.3865   12.4038 N.ar    1  UNL1       -0.1200
     27 N          64.9296   82.6091   10.9218 N.ar    1  UNL1       -0.1264
     28 C          63.8966   83.6357   10.5624 C.ar    1  UNL1        0.1874
     29 C          63.5046   84.2486    9.2507 C.ar    1  UNL1        0.0455
     30 C          62.4105   85.2734    9.1988 C.ar    1  UNL1        0.0628
     31 C          61.7083   85.6853   10.4587 C.ar    1  UNL1        0.2469
     32 N          62.1003   85.0724   11.7704 N.ar    1  UNL1       -0.1238
     33 N          63.1945   84.0475   11.8223 N.ar    1  UNL1       -0.1830
     34 O          60.6143   86.7101   10.4069 O.3     1  UNL1       -0.4349
     35 C          60.9414   88.1652   10.5669 C.ar    1  UNL1        0.1472
     36 C          62.3152   88.6662   10.2328 C.ar    1  UNL1        0.0376
     37 C          62.6423   90.1213   10.3928 C.ar    1  UNL1        0.0031
     38 C          61.5957   91.0755   10.8869 C.ar    1  UNL1        0.0002
     39 C          60.2218   90.5745   11.2210 C.ar    1  UNL1        0.0031
     40 C          59.8947   89.1194   11.0610 C.ar    1  UNL1        0.0376
@<TRIPOS>BOND
     1    10    11    2
     2    11    12   am
     3    12    16    1
     4    16    17    1
     5    17    18    1
     6    18    19    1
     7    19    20    1
     8    20    21    1
     9    21    22    1
    10    22    23    1
    11    11    13   am
    12    13     1    1
    13     1     2   ar
    14     2     3   ar
    15     3     4   ar
    16     4     5   ar
    17     5     6   ar
    18     6    24    1
    19    24    25    1
    20    25    26   ar
    21    26    27   ar
    22    27    28   ar
    23    28    29   ar
    24    29    30   ar
    25    30    31   ar
    26    31    34    1
    27    34    35    1
    28    35    36   ar
    29    36    37   ar
    30    37    38   ar
    31    38    39   ar
    32    39    40   ar
    33    31    32   ar
    34    32    33   ar
    35     6     7   ar
    36     7     8   ar
    37     8     9   ar
    38    23    18    1
    39     9     1   ar
    40     8     3   ar
    41    33    25   ar
    42    33    28   ar
    43    40    35   ar
    44    12    14    1
    45    13    15    1
@<TRIPOS>MOLECULE
*****
 40 45 0 0 0
SMALL
GASTEIGER

@<TRIPOS>ATOM
      1 C          60.8614   86.1412    8.8451 C.ar    1  UNL1        0.1667
      2 N          61.9268   85.1559    8.4656 N.ar    1  UNL1       -0.2239
      3 C          62.6760   84.7810    9.7098 C.ar    1  UNL1        0.0893
      4 C          63.8288   83.8507    9.9454 C.ar    1  UNL1        0.0202
      5 C          64.3793   83.6741   11.3294 C.ar    1  UNL1        0.0081
      6 C          63.7770   84.4278   12.4780 C.ar    1  UNL1        0.0329
      7 C          62.6242   85.3581   12.2424 C.ar    1  UNL1        0.0146
      8 C          62.0737   85.5346   10.8584 C.ar    1  UNL1        0.0502
      9 S          60.9522   86.3753   10.3239 S.2     1  UNL1       -0.0513
     10 O          60.8030   89.1251    8.5396 O.2     1  UNL1       -0.2524
     11 C          59.8488   88.2722    7.7572 C.2     1  UNL1        0.3059
     12 N          58.8653   88.9112    6.8221 N.am    1  UNL1       -0.2872
     13 N          59.8780   86.7803    7.9100 N.am    1  UNL1       -0.2485
     14 H          58.2390   88.3515    6.3086 H       1  UNL1        0.1510
     15 H          59.2517   86.2205    7.3965 H       1  UNL1        0.1583
     16 C          58.8362   90.4032    6.6693 C.3     1  UNL1        0.1082
     17 C          58.5130   91.0147    5.3383 C.3     1  UNL1        0.0938
     18 N          59.6140   91.5494    4.4714 N.3     1  UNL1       -0.2670
     19 C          61.0099   91.0208    4.6205 C.3     1  UNL1        0.1047
     20 C          62.1110   91.5556    3.7536 C.3     1  UNL1        0.1595
     21 O          61.8163   92.6190    2.7376 O.3     1  UNL1       -0.3508
     22 C          60.4205   93.1476    2.5884 C.3     1  UNL1        0.1595
     23 C          59.3193   92.6128    3.4553 C.3     1  UNL1        0.1047
     24 S          64.3275   84.2511   13.8621 S.3     1  UNL1       -0.0470
     25 C          63.6651   84.9287   15.0249 C.ar    1  UNL1        0.2172
     26 N          62.8664   84.2540   16.1005 N.ar    1  UNL1       -0.1200
     27 N          62.3928   85.3083   17.0566 N.ar    1  UNL1       -0.1264
     28 C          62.8987   86.6346   16.5718 C.ar    1  UNL1        0.1874
     29 C          62.7450   88.0257   17.1116 C.ar    1  UNL1        0.0455
     30 C          63.3775   89.1821   16.3958 C.ar    1  UNL1        0.0628
     31 C          64.1639   88.9476   15.1401 C.ar    1  UNL1        0.2469
     32 N          64.3176   87.5565   14.6004 N.ar    1  UNL1       -0.1238
     33 N          63.6851   86.4000   15.3162 N.ar    1  UNL1       -0.1830
     34 O          64.7965   90.1040   14.4243 O.3     1  UNL1       -0.4349
     35 C          64.3047   90.5043   13.0650 C.ar    1  UNL1        0.1472
     36 C          64.9375   91.6606   12.3491 C.ar    1  UNL1        0.0376
     37 C          64.4458   92.0610   10.9897 C.ar    1  UNL1        0.0031
     38 C          63.3213   91.3052   10.3462 C.ar    1  UNL1        0.0002
     39 C          62.6884   90.1489   11.0621 C.ar    1  UNL1        0.0031
     40 C          63.1801   89.7485   12.4215 C.ar    1  UNL1        0.0376
@<TRIPOS>BOND
     1    10    11    2
     2    11    12   am
     3    12    16    1
     4    16    17    1
     5    17    18    1
     6    18    19    1
     7    19    20    1
     8    20    21    1
     9    21    22    1
    10    22    23    1
    11    11    13   am
    12    13     1    1
    13     1     2   ar
    14     2     3   ar
    15     3     4   ar
    16     4     5   ar
    17     5     6   ar
    18     6    24    1
    19    24    25    1
    20    25    26   ar
    21    26    27   ar
    22    27    28   ar
    23    28    29   ar
    24    29    30   ar
    25    30    31   ar
    26    31    34    1
    27    34    35    1
    28    35    36   ar
    29    36    37   ar
    30    37    38   ar
    31    38    39   ar
    32    39    40   ar
    33    31    32   ar
    34    32    33   ar
    35     6     7   ar
    36     7     8   ar
    37     8     9   ar
    38    23    18    1
    39     9     1   ar
    40     8     3   ar
    41    33    25   ar
    42    33    28   ar
    43    40    35   ar
    44    12    14    1
    45    13    15    1
@<TRIPOS>MOLECULE
*****
 40 45 0 0 0
SMALL
GASTEIGER

@<TRIPOS>ATOM
      1 C          63.1839   85.1707   16.0093 C.ar    1  UNL1        0.1667
      2 N          62.4691   86.2312   16.7931 N.ar    1  UNL1       -0.2239
      3 C          63.0428   87.5613   16.4037 C.ar    1  UNL1        0.0893
      4 C          62.7296   88.9588   16.8496 C.ar    1  UNL1        0.0202
      5 C          63.4858   90.1178   16.2709 C.ar    1  UNL1        0.0081
      6 C          64.5550   89.8794   15.2464 C.ar    1  UNL1        0.0329
      7 C          64.8682   88.4819   14.8004 C.ar    1  UNL1        0.0146
      8 C          64.1121   87.3229   15.3791 C.ar    1  UNL1        0.0502
      9 S          64.1993   85.8454   15.1354 S.2     1  UNL1       -0.0513
     10 O          62.0262   83.7244   13.6496 O.2     1  UNL1       -0.2524
     11 C          62.3493   82.9715   14.9061 C.2     1  UNL1        0.3059
     12 N          62.0935   81.4954   14.9828 N.am    1  UNL1       -0.2872
     13 N          62.9281   83.6946   16.0859 N.am    1  UNL1       -0.2485
     14 H          62.3056   81.0013   15.8074 H       1  UNL1        0.1510
     15 H          63.1402   83.2004   16.9106 H       1  UNL1        0.1583
     16 C          61.5147   80.7723   13.8029 C.3     1  UNL1        0.1082
     17 C          62.4070   80.3367   12.6786 C.3     1  UNL1        0.0938
     18 N          63.2746   81.3398   11.9779 N.3     1  UNL1       -0.2670
     19 C          64.3398   82.0718   12.7392 C.3     1  UNL1        0.1047
     20 C          65.2074   83.0749   12.0385 C.3     1  UNL1        0.1595
     21 O          65.0099   83.3460   10.5765 O.3     1  UNL1       -0.3508
     22 C          63.9447   82.6140    9.8152 C.3     1  UNL1        0.1595
     23 C          63.0771   81.6109   10.5159 C.3     1  UNL1        0.1047
     24 S          65.3112   91.0385   14.6677 S.3     1  UNL1       -0.0470
     25 C          64.9695   91.5488   13.2992 C.ar    1  UNL1        0.2172
     26 N          65.4960   92.8043   12.6695 N.ar    1  UNL1       -0.1200
     27 N          64.8932   92.9247   11.3013 N.ar    1  UNL1       -0.1264
     28 C          63.9941   91.7435   11.0853 C.ar    1  UNL1        0.1874
     29 C          63.1386   91.3324    9.9239 C.ar    1  UNL1        0.0455
     30 C          62.3302   90.0710    9.9971 C.ar    1  UNL1        0.0628
     31 C          62.3774   89.2207   11.2319 C.ar    1  UNL1        0.2469
     32 N          63.2329   89.6318   12.3934 N.ar    1  UNL1       -0.1238
     33 N          64.0413   90.8932   12.3201 N.ar    1  UNL1       -0.1830
     34 O          61.5690   87.9593   11.3052 O.3     1  UNL1       -0.4349
     35 C          61.1865   87.2394   10.0461 C.ar    1  UNL1        0.1472
     36 C          59.8142   87.4179    9.4675 C.ar    1  UNL1        0.0376
     37 C          59.4316   86.6980    8.2084 C.ar    1  UNL1        0.0031
     38 C          60.4213   85.7996    7.5279 C.ar    1  UNL1        0.0002
     39 C          61.7938   85.6210    8.1064 C.ar    1  UNL1        0.0031
     40 C          62.1763   86.3409    9.3655 C.ar    1  UNL1        0.0376
@<TRIPOS>BOND
     1    10    11    2
     2    11    12   am
     3    12    16    1
     4    16    17    1
     5    17    18    1
     6    18    19    1
     7    19    20    1
     8    20    21    1
     9    21    22    1
    10    22    23    1
    11    11    13   am
    12    13     1    1
    13     1     2   ar
    14     2     3   ar
    15     3     4   ar
    16     4     5   ar
    17     5     6   ar
    18     6    24    1
    19    24    25    1
    20    25    26   ar
    21    26    27   ar
    22    27    28   ar
    23    28    29   ar
    24    29    30   ar
    25    30    31   ar
    26    31    34    1
    27    34    35    1
    28    35    36   ar
    29    36    37   ar
    30    37    38   ar
    31    38    39   ar
    32    39    40   ar
    33    31    32   ar
    34    32    33   ar
    35     6     7   ar
    36     7     8   ar
    37     8     9   ar
    38    23    18    1
    39     9     1   ar
    40     8     3   ar
    41    33    25   ar
    42    33    28   ar
    43    40    35   ar
    44    12    14    1
    45    13    15    1
@<TRIPOS>MOLECULE
*****
 40 45 0 0 0
SMALL
GASTEIGER

@<TRIPOS>ATOM
      1 C          59.3871   88.6037    7.7218 C.ar    1  UNL1        0.1667
      2 N          60.0489   89.1172    8.9661 N.ar    1  UNL1       -0.2239
      3 C          60.9359   88.0322    9.5009 C.ar    1  UNL1        0.0893
      4 C          61.8323   87.9695   10.7019 C.ar    1  UNL1        0.0202
      5 C          62.6152   86.7227   10.9891 C.ar    1  UNL1        0.0081
      6 C          62.5016   85.5386   10.0753 C.ar    1  UNL1        0.0329
      7 C          61.6052   85.6013    8.8743 C.ar    1  UNL1        0.0146
      8 C          60.8224   86.8481    8.5871 C.ar    1  UNL1        0.0502
      9 S          59.8652   87.2013    7.4875 S.2     1  UNL1       -0.0513
     10 O          60.3997   90.4366    5.5734 O.2     1  UNL1       -0.2524
     11 C          58.9239   90.2762    5.7884 C.2     1  UNL1        0.3059
     12 N          57.9543   91.0323    4.9291 N.am    1  UNL1       -0.2872
     13 N          58.4176   89.3598    6.8625 N.am    1  UNL1       -0.2485
     14 H          56.9857   90.9271    5.0702 H       1  UNL1        0.1510
     15 H          57.4490   89.2546    7.0036 H       1  UNL1        0.1583
     16 C          58.4606   91.9488    3.8549 C.3     1  UNL1        0.1082
     17 C          59.7708   92.6578    4.0301 C.3     1  UNL1        0.0938
     18 N          60.6714   92.8720    2.8499 N.3     1  UNL1       -0.2670
     19 C          62.0552   92.2931    2.8475 C.3     1  UNL1        0.1047
     20 C          62.9558   92.5073    1.6673 C.3     1  UNL1        0.1595
     21 O          62.4726   93.3004    0.4893 O.3     1  UNL1       -0.3508
     22 C          61.0889   93.8793    0.4916 C.3     1  UNL1        0.1595
     23 C          60.1882   93.6651    1.6719 C.3     1  UNL1        0.1047
     24 S          63.2845   84.2917   10.3626 S.3     1  UNL1       -0.0470
     25 C          62.9079   83.4205   11.5240 C.ar    1  UNL1        0.2172
     26 N          62.2291   82.0854   11.4411 N.ar    1  UNL1       -0.1200
     27 N          62.0455   81.5711   12.8382 N.ar    1  UNL1       -0.1264
     28 C          62.6109   82.5884   13.7846 C.ar    1  UNL1        0.1874
     29 C          62.7092   82.6217   15.2810 C.ar    1  UNL1        0.0455
     30 C          63.3405   83.7977   15.9652 C.ar    1  UNL1        0.0628
     31 C          63.8735   84.9408   15.1530 C.ar    1  UNL1        0.2469
     32 N          63.7751   84.9075   13.6566 N.ar    1  UNL1       -0.1238
     33 N          63.1438   83.7314   12.9724 N.ar    1  UNL1       -0.1830
     34 O          64.5048   86.1168   15.8372 O.3     1  UNL1       -0.4349
     35 C          64.0725   87.5096   15.4861 C.ar    1  UNL1        0.1472
     36 C          63.3425   88.3452   16.4955 C.ar    1  UNL1        0.0376
     37 C          62.9102   89.7380   16.1444 C.ar    1  UNL1        0.0031
     38 C          63.2080   90.2953   14.7840 C.ar    1  UNL1        0.0002
     39 C          63.9380   89.4597   13.7746 C.ar    1  UNL1        0.0031
     40 C          64.3703   88.0669   14.1256 C.ar    1  UNL1        0.0376
@<TRIPOS>BOND
     1    10    11    2
     2    11    12   am
     3    12    16    1
     4    16    17    1
     5    17    18    1
     6    18    19    1
     7    19    20    1
     8    20    21    1
     9    21    22    1
    10    22    23    1
    11    11    13   am
    12    13     1    1
    13     1     2   ar
    14     2     3   ar
    15     3     4   ar
    16     4     5   ar
    17     5     6   ar
    18     6    24    1
    19    24    25    1
    20    25    26   ar
    21    26    27   ar
    22    27    28   ar
    23    28    29   ar
    24    29    30   ar
    25    30    31   ar
    26    31    34    1
    27    34    35    1
    28    35    36   ar
    29    36    37   ar
    30    37    38   ar
    31    38    39   ar
    32    39    40   ar
    33    31    32   ar
    34    32    33   ar
    35     6     7   ar
    36     7     8   ar
    37     8     9   ar
    38    23    18    1
    39     9     1   ar
    40     8     3   ar
    41    33    25   ar
    42    33    28   ar
    43    40    35   ar
    44    12    14    1
    45    13    15    1
@<TRIPOS>MOLECULE
*****
 40 45 0 0 0
SMALL
GASTEIGER

@<TRIPOS>ATOM
      1 C          64.3777   84.9994   15.4834 C.ar    1  UNL1        0.1667
      2 N          63.5487   85.4816   16.6367 N.ar    1  UNL1       -0.2239
      3 C          63.5156   86.9805   16.5893 C.ar    1  UNL1        0.0893
      4 C          62.8537   87.9982   17.4702 C.ar    1  UNL1        0.0202
      5 C          63.0004   89.4602   17.1684 C.ar    1  UNL1        0.0081
      6 C          63.8091   89.9044   15.9857 C.ar    1  UNL1        0.0329
      7 C          64.4710   88.8867   15.1048 C.ar    1  UNL1        0.0146
      8 C          64.3243   87.4247   15.4066 C.ar    1  UNL1        0.0502
      9 S          64.8571   86.2004   14.7232 S.2     1  UNL1       -0.0513
     10 O          62.2223   83.2432   14.3567 O.2     1  UNL1       -0.2524
     11 C          63.5975   82.6896   14.5857 C.2     1  UNL1        0.3059
     12 N          63.8950   81.2579   14.2513 N.am    1  UNL1       -0.2872
     13 N          64.6752   83.5678   15.1491 N.am    1  UNL1       -0.2485
     14 H          64.7976   80.8946   14.4016 H       1  UNL1        0.1510
     15 H          65.5778   83.2045   15.2994 H       1  UNL1        0.1583
     16 C          62.8172   80.3798   13.6880 C.3     1  UNL1        0.1082
     17 C          62.2597   80.6583   12.3235 C.3     1  UNL1        0.0938
     18 N          62.7861   81.8095   11.5189 N.3     1  UNL1       -0.2670
     19 C          63.9785   81.6195   10.6289 C.3     1  UNL1        0.1047
     20 C          64.5049   82.7707    9.8242 C.3     1  UNL1        0.1595
     21 O          63.8390   84.1121    9.9096 O.3     1  UNL1       -0.3508
     22 C          62.6466   84.3022   10.7995 C.3     1  UNL1        0.1595
     23 C          62.1201   83.1509   11.6042 C.3     1  UNL1        0.1047
     24 S          63.9558   91.3664   15.6839 S.3     1  UNL1       -0.0470
     25 C          65.0480   91.8378   14.7704 C.ar    1  UNL1        0.2172
     26 N          66.4019   92.3261   15.1933 N.ar    1  UNL1       -0.1200
     27 N          67.1688   92.6936   13.9577 N.ar    1  UNL1       -0.1264
     28 C          66.2890   92.4325   12.7712 C.ar    1  UNL1        0.1874
     29 C          66.5120   92.6081   11.2983 C.ar    1  UNL1        0.0455
     30 C          65.4245   92.2548   10.3276 C.ar    1  UNL1        0.0628
     31 C          64.1137   91.7258   10.8298 C.ar    1  UNL1        0.2469
     32 N          63.8907   91.5502   12.3027 N.ar    1  UNL1       -0.1238
     33 N          64.9783   91.9036   13.2734 N.ar    1  UNL1       -0.1830
     34 O          63.0261   91.3724    9.8593 O.3     1  UNL1       -0.4349
     35 C          62.0560   90.2762   10.1864 C.ar    1  UNL1        0.1472
     36 C          60.7544   90.6019   10.8570 C.ar    1  UNL1        0.0376
     37 C          59.7843   89.5057   11.1842 C.ar    1  UNL1        0.0031
     38 C          60.1156   88.0837   10.8407 C.ar    1  UNL1        0.0002
     39 C          61.4172   87.7578   10.1700 C.ar    1  UNL1        0.0031
     40 C          62.3874   88.8541    9.8429 C.ar    1  UNL1        0.0376
@<TRIPOS>BOND
     1    10    11    2
     2    11    12   am
     3    12    16    1
     4    16    17    1
     5    17    18    1
     6    18    19    1
     7    19    20    1
     8    20    21    1
     9    21    22    1
    10    22    23    1
    11    11    13   am
    12    13     1    1
    13     1     2   ar
    14     2     3   ar
    15     3     4   ar
    16     4     5   ar
    17     5     6   ar
    18     6    24    1
    19    24    25    1
    20    25    26   ar
    21    26    27   ar
    22    27    28   ar
    23    28    29   ar
    24    29    30   ar
    25    30    31   ar
    26    31    34    1
    27    34    35    1
    28    35    36   ar
    29    36    37   ar
    30    37    38   ar
    31    38    39   ar
    32    39    40   ar
    33    31    32   ar
    34    32    33   ar
    35     6     7   ar
    36     7     8   ar
    37     8     9   ar
    38    23    18    1
    39     9     1   ar
    40     8     3   ar
    41    33    25   ar
    42    33    28   ar
    43    40    35   ar
    44    12    14    1
    45    13    15    1
@<TRIPOS>MOLECULE
*****
 40 45 0 0 0
SMALL
GASTEIGER

@<TRIPOS>ATOM
      1 C          59.7405   87.9195    8.3855 C.ar    1  UNL1        0.1667
      2 N          60.7601   87.1333    7.6159 N.ar    1  UNL1       -0.2239
      3 C          61.5422   86.3066    8.5930 C.ar    1  UNL1        0.0893
      4 C          62.6734   85.3387    8.4096 C.ar    1  UNL1        0.0202
      5 C          63.2683   84.6462    9.5997 C.ar    1  UNL1        0.0081
      6 C          62.7321   84.9215   10.9732 C.ar    1  UNL1        0.0329
      7 C          61.6009   85.8893   11.1567 C.ar    1  UNL1        0.0146
      8 C          61.0060   86.5819    9.9666 C.ar    1  UNL1        0.0502
      9 S          59.8925   87.5787    9.8383 S.2     1  UNL1       -0.0513
     10 O          60.3599   89.3598    5.8277 O.2     1  UNL1       -0.2524
     11 C          59.0536   89.5983    6.5254 C.2     1  UNL1        0.3059
     12 N          58.0570   90.5570    5.9442 N.am    1  UNL1       -0.2872
     13 N          58.7439   88.8782    7.8043 N.am    1  UNL1       -0.2485
     14 H          57.1997   90.7136    6.4021 H       1  UNL1        0.1510
     15 H          57.8866   89.0348    8.2622 H       1  UNL1        0.1583
     16 C          58.3668   91.2771    4.6653 C.3     1  UNL1        0.1082
     17 C          59.2595   92.4824    4.6806 C.3     1  UNL1        0.0938
     18 N          60.3456   92.6243    3.6558 N.3     1  UNL1       -0.2670
     19 C          60.1761   93.5778    2.5103 C.3     1  UNL1        0.1047
     20 C          61.2622   93.7197    1.4855 C.3     1  UNL1        0.1595
     21 O          62.5179   92.9081    1.6062 O.3     1  UNL1       -0.3508
     22 C          62.6875   91.9547    2.7516 C.3     1  UNL1        0.1595
     23 C          61.6013   91.8127    3.7765 C.3     1  UNL1        0.1047
     24 S          63.3271   84.2289   12.1634 S.3     1  UNL1       -0.0470
     25 C          63.6462   85.0098   13.4036 C.ar    1  UNL1        0.2172
     26 N          63.9866   84.4327   14.7457 N.ar    1  UNL1       -0.1200
     27 N          64.2317   85.5712   15.6911 N.ar    1  UNL1       -0.1264
     28 C          64.0426   86.8519   14.9333 C.ar    1  UNL1        0.1874
     29 C          64.1533   88.2892   15.3479 C.ar    1  UNL1        0.0455
     30 C          63.9021   89.3795   14.3490 C.ar    1  UNL1        0.0628
     31 C          63.5402   89.0325   12.9352 C.ar    1  UNL1        0.2469
     32 N          63.4296   87.5952   12.5205 N.ar    1  UNL1       -0.1238
     33 N          63.6808   86.5049   13.5196 N.ar    1  UNL1       -0.1830
     34 O          63.2890   90.1228   11.9362 O.3     1  UNL1       -0.4349
     35 C          64.2224   91.2941   11.8536 C.ar    1  UNL1        0.1472
     36 C          64.3928   92.0273   10.5562 C.ar    1  UNL1        0.0376
     37 C          65.3262   93.1986   10.4737 C.ar    1  UNL1        0.0031
     38 C          66.0891   93.6367   11.6884 C.ar    1  UNL1        0.0002
     39 C          65.9187   92.9036   12.9860 C.ar    1  UNL1        0.0031
     40 C          64.9854   91.7323   13.0685 C.ar    1  UNL1        0.0376
@<TRIPOS>BOND
     1    10    11    2
     2    11    12   am
     3    12    16    1
     4    16    17    1
     5    17    18    1
     6    18    19    1
     7    19    20    1
     8    20    21    1
     9    21    22    1
    10    22    23    1
    11    11    13   am
    12    13     1    1
    13     1     2   ar
    14     2     3   ar
    15     3     4   ar
    16     4     5   ar
    17     5     6   ar
    18     6    24    1
    19    24    25    1
    20    25    26   ar
    21    26    27   ar
    22    27    28   ar
    23    28    29   ar
    24    29    30   ar
    25    30    31   ar
    26    31    34    1
    27    34    35    1
    28    35    36   ar
    29    36    37   ar
    30    37    38   ar
    31    38    39   ar
    32    39    40   ar
    33    31    32   ar
    34    32    33   ar
    35     6     7   ar
    36     7     8   ar
    37     8     9   ar
    38    23    18    1
    39     9     1   ar
    40     8     3   ar
    41    33    25   ar
    42    33    28   ar
    43    40    35   ar
    44    12    14    1
    45    13    15    1
@<TRIPOS>MOLECULE
*****
 40 45 0 0 0
SMALL
GASTEIGER

@<TRIPOS>ATOM
      1 C          63.9082   91.1149   12.3648 C.ar    1  UNL1        0.1667
      2 N          63.0560   91.2955   11.1437 N.ar    1  UNL1       -0.2239
      3 C          62.5125   89.9526   10.7549 C.ar    1  UNL1        0.0893
      4 C          61.6141   89.5194    9.6346 C.ar    1  UNL1        0.0202
      5 C          61.2321   88.0756    9.4951 C.ar    1  UNL1        0.0081
      6 C          61.7484   87.0650   10.4760 C.ar    1  UNL1        0.0329
      7 C          62.6467   87.4982   11.5963 C.ar    1  UNL1        0.0146
      8 C          63.0288   88.9420   11.7358 C.ar    1  UNL1        0.0502
      9 S          63.8914   89.6604   12.7307 S.2     1  UNL1       -0.0513
     10 O          65.3533   93.2423   10.8200 O.2     1  UNL1       -0.2524
     11 C          65.3700   93.2623   12.3198 C.2     1  UNL1        0.3059
     12 N          66.1092   94.3460   13.0472 N.am    1  UNL1       -0.2872
     13 N          64.6475   92.1986   13.0922 N.am    1  UNL1       -0.2485
     14 H          66.1202   94.3591   14.0316 H       1  UNL1        0.1510
     15 H          64.6584   92.2117   14.0765 H       1  UNL1        0.1583
     16 C          66.8317   95.4097   12.2748 C.3     1  UNL1        0.1082
     17 C          66.0547   96.4593   11.5369 C.3     1  UNL1        0.0938
     18 N          66.0320   96.4598   10.0371 N.3     1  UNL1       -0.2670
     19 C          64.7829   96.8542    9.3060 C.3     1  UNL1        0.1047
     20 C          64.7602   96.8547    7.8062 C.3     1  UNL1        0.1595
     21 O          65.9866   96.4610    7.0374 O.3     1  UNL1       -0.3508
     22 C          67.2356   96.0667    7.7684 C.3     1  UNL1        0.1595
     23 C          67.2583   96.0661    9.2683 C.3     1  UNL1        0.1047
     24 S          61.3663   85.6211   10.3364 S.3     1  UNL1       -0.0470
     25 C          62.4138   84.5537   10.4512 C.ar    1  UNL1        0.2172
     26 N          63.0564   83.8225    9.3099 N.ar    1  UNL1       -0.1200
     27 N          64.0423   82.8469    9.8807 N.ar    1  UNL1       -0.1264
     28 C          64.0092   82.9751   11.3749 C.ar    1  UNL1        0.1874
     29 C          64.7654   82.2675   12.4601 C.ar    1  UNL1        0.0455
     30 C          64.5152   82.6147   13.8977 C.ar    1  UNL1        0.0628
     31 C          63.5087   83.6696   14.2503 C.ar    1  UNL1        0.2469
     32 N          62.7525   84.3772   13.1651 N.ar    1  UNL1       -0.1238
     33 N          63.0027   84.0299   11.7275 N.ar    1  UNL1       -0.1830
     34 O          63.2585   84.0169   15.6878 O.3     1  UNL1       -0.4349
     35 C          63.2239   85.4537   16.1173 C.ar    1  UNL1        0.1472
     36 C          64.0095   86.4822   15.3590 C.ar    1  UNL1        0.0376
     37 C          63.9749   87.9190   15.7885 C.ar    1  UNL1        0.0031
     38 C          63.1548   88.3273   16.9761 C.ar    1  UNL1        0.0002
     39 C          62.3692   87.2988   17.7344 C.ar    1  UNL1        0.0031
     40 C          62.4038   85.8620   17.3050 C.ar    1  UNL1        0.0376
@<TRIPOS>BOND
     1    10    11    2
     2    11    12   am
     3    12    16    1
     4    16    17    1
     5    17    18    1
     6    18    19    1
     7    19    20    1
     8    20    21    1
     9    21    22    1
    10    22    23    1
    11    11    13   am
    12    13     1    1
    13     1     2   ar
    14     2     3   ar
    15     3     4   ar
    16     4     5   ar
    17     5     6   ar
    18     6    24    1
    19    24    25    1
    20    25    26   ar
    21    26    27   ar
    22    27    28   ar
    23    28    29   ar
    24    29    30   ar
    25    30    31   ar
    26    31    34    1
    27    34    35    1
    28    35    36   ar
    29    36    37   ar
    30    37    38   ar
    31    38    39   ar
    32    39    40   ar
    33    31    32   ar
    34    32    33   ar
    35     6     7   ar
    36     7     8   ar
    37     8     9   ar
    38    23    18    1
    39     9     1   ar
    40     8     3   ar
    41    33    25   ar
    42    33    28   ar
    43    40    35   ar
    44    12    14    1
    45    13    15    1
@<TRIPOS>MOLECULE
*****
 40 45 0 0 0
SMALL
GASTEIGER

@<TRIPOS>ATOM
      1 C          59.5272   89.6671    7.0659 C.ar    1  UNL1        0.1667
      2 N          60.5579   90.0473    8.0873 N.ar    1  UNL1       -0.2239
      3 C          60.9237   88.8137    8.8582 C.ar    1  UNL1        0.0893
      4 C          61.8856   88.5833    9.9859 C.ar    1  UNL1        0.0202
      5 C          62.0428   87.2102   10.5688 C.ar    1  UNL1        0.0081
      6 C          61.2382   86.0675   10.0239 C.ar    1  UNL1        0.0329
      7 C          60.2764   86.2979    8.8962 C.ar    1  UNL1        0.0146
      8 C          60.1192   87.6710    8.3133 C.ar    1  UNL1        0.0502
      9 S          59.2561   88.1985    7.2057 S.2     1  UNL1       -0.0513
     10 O          61.2181   91.2016    5.1201 O.2     1  UNL1       -0.2524
     11 C          59.7265   91.3602    5.1054 C.2     1  UNL1        0.3059
     12 N          59.0804   92.2860    4.1178 N.am    1  UNL1       -0.2872
     13 N          58.8811   90.5929    6.0783 N.am    1  UNL1       -0.2485
     14 H          58.1015   92.3901    4.1081 H       1  UNL1        0.1510
     15 H          57.9022   90.6970    6.0687 H       1  UNL1        0.1583
     16 C          59.9259   93.0533    3.1449 C.3     1  UNL1        0.1082
     17 C          60.3325   92.4238    1.8455 C.3     1  UNL1        0.0938
     18 N          61.6482   92.7794    1.2191 N.3     1  UNL1       -0.2670
     19 C          61.7007   93.2316   -0.2102 C.3     1  UNL1        0.1047
     20 C          63.0164   93.5873   -0.8365 C.3     1  UNL1        0.1595
     21 O          64.2797   93.4907   -0.0337 O.3     1  UNL1       -0.3508
     22 C          64.2274   93.0386    1.3956 C.3     1  UNL1        0.1595
     23 C          62.9116   92.6829    2.0220 C.3     1  UNL1        0.1047
     24 S          61.3955   84.6943   10.6068 S.3     1  UNL1       -0.0470
     25 C          62.7361   84.2387   11.1018 C.ar    1  UNL1        0.2172
     26 N          63.6597   83.2890   10.3982 N.ar    1  UNL1       -0.1200
     27 N          64.8829   83.1162   11.2489 N.ar    1  UNL1       -0.1264
     28 C          64.7153   83.9590   12.4784 C.ar    1  UNL1        0.1874
     29 C          65.5994   84.1844   13.6690 C.ar    1  UNL1        0.0455
     30 C          65.1568   85.1034   14.7687 C.ar    1  UNL1        0.0628
     31 C          63.8300   85.7972   14.6778 C.ar    1  UNL1        0.2469
     32 N          62.9458   85.5718   13.4872 N.ar    1  UNL1       -0.1238
     33 N          63.3885   84.6527   12.3875 N.ar    1  UNL1       -0.1830
     34 O          63.3873   86.7162   15.7774 O.3     1  UNL1       -0.4349
     35 C          63.6478   88.1898   15.6738 C.ar    1  UNL1        0.1472
     36 C          64.4264   88.7339   14.5129 C.ar    1  UNL1        0.0376
     37 C          64.6869   90.2075   14.4092 C.ar    1  UNL1        0.0031
     38 C          64.1688   91.1369   15.4664 C.ar    1  UNL1        0.0002
     39 C          63.3902   90.5928   16.6274 C.ar    1  UNL1        0.0031
     40 C          63.1297   89.1193   16.7310 C.ar    1  UNL1        0.0376
@<TRIPOS>BOND
     1    10    11    2
     2    11    12   am
     3    12    16    1
     4    16    17    1
     5    17    18    1
     6    18    19    1
     7    19    20    1
     8    20    21    1
     9    21    22    1
    10    22    23    1
    11    11    13   am
    12    13     1    1
    13     1     2   ar
    14     2     3   ar
    15     3     4   ar
    16     4     5   ar
    17     5     6   ar
    18     6    24    1
    19    24    25    1
    20    25    26   ar
    21    26    27   ar
    22    27    28   ar
    23    28    29   ar
    24    29    30   ar
    25    30    31   ar
    26    31    34    1
    27    34    35    1
    28    35    36   ar
    29    36    37   ar
    30    37    38   ar
    31    38    39   ar
    32    39    40   ar
    33    31    32   ar
    34    32    33   ar
    35     6     7   ar
    36     7     8   ar
    37     8     9   ar
    38    23    18    1
    39     9     1   ar
    40     8     3   ar
    41    33    25   ar
    42    33    28   ar
    43    40    35   ar
    44    12    14    1
    45    13    15    1
@<TRIPOS>MOLECULE
*****
 40 45 0 0 0
SMALL
GASTEIGER

@<TRIPOS>ATOM
      1 C          59.1914   89.5842    6.9842 C.ar    1  UNL1        0.1667
      2 N          59.3315   90.0525    8.4023 N.ar    1  UNL1       -0.2239
      3 C          60.0039   88.9642    9.1856 C.ar    1  UNL1        0.0893
      4 C          60.4009   88.8648   10.6287 C.ar    1  UNL1        0.0202
      5 C          61.0733   87.6244   11.1377 C.ar    1  UNL1        0.0081
      6 C          61.3487   86.4834   10.2037 C.ar    1  UNL1        0.0329
      7 C          60.9517   86.5829    8.7607 C.ar    1  UNL1        0.0146
      8 C          60.2792   87.8233    8.2516 C.ar    1  UNL1        0.0502
      9 S          59.7771   88.2064    6.8911 S.2     1  UNL1       -0.0513
     10 O          60.9148   91.2780    5.2062 O.2     1  UNL1       -0.2524
     11 C          59.4356   91.2046    4.9682 C.2     1  UNL1        0.3059
     12 N          58.8181   91.9782    3.8411 N.am    1  UNL1       -0.2872
     13 N          58.5739   90.3578    5.8571 N.am    1  UNL1       -0.2485
     14 H          57.8473   91.9301    3.6848 H       1  UNL1        0.1510
     15 H          57.6031   90.3097    5.7009 H       1  UNL1        0.1583
     16 C          59.6798   92.8251    2.9521 C.3     1  UNL1        0.1082
     17 C          59.5582   92.7124    1.4613 C.3     1  UNL1        0.0938
     18 N          60.7217   93.0699    0.5847 N.3     1  UNL1       -0.2670
     19 C          60.5192   93.2614   -0.8893 C.3     1  UNL1        0.1047
     20 C          61.6827   93.6189   -1.7659 C.3     1  UNL1        0.1595
     21 O          63.0486   93.7848   -1.1686 O.3     1  UNL1       -0.3508
     22 C          63.2511   93.5932    0.3052 C.3     1  UNL1        0.1595
     23 C          62.0876   93.2358    1.1819 C.3     1  UNL1        0.1047
     24 S          62.0212   85.2430   10.7129 S.3     1  UNL1       -0.0470
     25 C          62.8167   85.2889   11.9837 C.ar    1  UNL1        0.2172
     26 N          63.3380   84.1035   12.7408 N.ar    1  UNL1       -0.1200
     27 N          64.0741   84.6102   13.9456 N.ar    1  UNL1       -0.1264
     28 C          64.0077   86.1087   13.9330 C.ar    1  UNL1        0.1874
     29 C          64.5544   87.1456   14.8689 C.ar    1  UNL1        0.0455
     30 C          64.3241   88.6017   14.5925 C.ar    1  UNL1        0.0628
     31 C          63.5470   89.0212   13.3800 C.ar    1  UNL1        0.2469
     32 N          63.0002   87.9844   12.4440 N.ar    1  UNL1       -0.1238
     33 N          63.2305   86.5281   12.7205 N.ar    1  UNL1       -0.1830
     34 O          63.3166   90.4773   13.1035 O.3     1  UNL1       -0.4349
     35 C          64.4219   91.3167   12.5345 C.ar    1  UNL1        0.1472
     36 C          65.5598   91.7518   13.4096 C.ar    1  UNL1        0.0376
     37 C          66.6650   92.5912   12.8406 C.ar    1  UNL1        0.0031
     38 C          66.6325   92.9955   11.3966 C.ar    1  UNL1        0.0002
     39 C          65.4946   92.5604   10.5213 C.ar    1  UNL1        0.0031
     40 C          64.3894   91.7210   11.0903 C.ar    1  UNL1        0.0376
@<TRIPOS>BOND
     1    10    11    2
     2    11    12   am
     3    12    16    1
     4    16    17    1
     5    17    18    1
     6    18    19    1
     7    19    20    1
     8    20    21    1
     9    21    22    1
    10    22    23    1
    11    11    13   am
    12    13     1    1
    13     1     2   ar
    14     2     3   ar
    15     3     4   ar
    16     4     5   ar
    17     5     6   ar
    18     6    24    1
    19    24    25    1
    20    25    26   ar
    21    26    27   ar
    22    27    28   ar
    23    28    29   ar
    24    29    30   ar
    25    30    31   ar
    26    31    34    1
    27    34    35    1
    28    35    36   ar
    29    36    37   ar
    30    37    38   ar
    31    38    39   ar
    32    39    40   ar
    33    31    32   ar
    34    32    33   ar
    35     6     7   ar
    36     7     8   ar
    37     8     9   ar
    38    23    18    1
    39     9     1   ar
    40     8     3   ar
    41    33    25   ar
    42    33    28   ar
    43    40    35   ar
    44    12    14    1
    45    13    15    1
