@<TRIPOS>MOLECULE
*****
 38 42 0 0 0
SMALL
GASTEIGER

@<TRIPOS>ATOM
      1 N          63.6308   90.1255   13.1769 N.3     1  UNL1       -0.2679
      2 C          64.4538   91.2690   12.6620 C.3     1  UNL1        0.0978
      3 C          64.3715   91.6611   11.2166 C.3     1  UNL1        0.0224
      4 C          65.1945   92.8046   10.7017 C.3     1  UNL1        0.0065
      5 C          66.0998   93.5559   11.6322 C.3     1  UNL1        0.0277
      6 C          66.1820   93.1638   13.0777 C.ar    1  UNL1       -0.0073
      7 C          67.0873   93.9151   14.0083 C.ar    1  UNL1       -0.0015
      8 C          67.1696   93.5229   15.4538 C.ar    1  UNL1        0.0203
      9 C          66.3466   92.3794   15.9687 C.ar    1  UNL1        0.0985
     10 N          65.4413   91.6281   15.0381 N.ar    1  UNL1       -0.2471
     11 C          65.3590   92.0203   13.5926 C.ar    1  UNL1        0.0695
     12 C          64.2833   89.0237   13.9581 C.3     1  UNL1        0.0725
     13 C          63.8394   88.7348   15.3615 C.3     1  UNL1        0.0187
     14 C          64.3719   86.8358   14.5803 C.3     1  UNL1        0.0014
     15 C          63.6756   87.3157   15.8192 C.3     1  UNL1        0.0158
     16 C          62.9793   87.7957   17.0580 C.3     1  UNL1        0.0014
     17 C          63.5117   85.8967   16.2768 C.3     1  UNL1        0.0685
     18 N          62.4682   85.0217   15.6480 N.3     1  UNL1       -0.2975
     19 H          62.2963   85.3932   14.7137 H       1  UNL1        0.1232
     20 C          62.7185   83.5511   15.4899 C.3     1  UNL1        0.0687
     21 C          62.7875   82.9452   14.1195 C.3     1  UNL1        0.0207
     22 C          62.6590   81.4605   13.9485 C.3     1  UNL1        0.0335
     23 C          62.7281   80.8546   12.5781 C.3     1  UNL1        0.1422
     24 O          62.9256   81.7333   11.3786 O.3     1  UNL1       -0.3538
     25 C          63.0542   83.2180   11.5495 C.3     1  UNL1        0.1422
     26 C          62.9851   83.8240   12.9200 C.3     1  UNL1        0.0335
     27 C          62.1552   90.0837   12.9106 C.3     1  UNL1        0.0886
     28 C          61.6310   89.3635   11.7037 C.3     1  UNL1        0.0748
     29 C          62.3484   88.1540   11.1817 C.3     1  UNL1        0.0432
     30 C          61.8242   87.4338    9.9748 C.ar    1  UNL1       -0.0234
     31 C          62.5416   86.2244    9.4527 C.ar    1  UNL1       -0.0045
     32 C          62.0173   85.5042    8.2459 C.ar    1  UNL1       -0.0003
     33 C          60.7756   85.9935    7.5612 C.ar    1  UNL1       -0.0003
     34 C          60.0582   87.2029    8.0832 C.ar    1  UNL1       -0.0032
     35 C          60.5825   87.9230    9.2900 C.ar    1  UNL1       -0.0103
     36 C          59.8651   89.1325    9.8122 C.3     1  UNL1        0.0953
     37 N          60.3893   89.8527   11.0190 N.3     1  UNL1       -0.2934
     38 H          59.6445   89.8405   11.7158 H       1  UNL1        0.1236
@<TRIPOS>BOND
     1    14    15    1
     2    15    16    1
     3    15    13    1
     4    13    12    1
     5    12     1    1
     6     1    27    1
     7    28    27    1
     8    28    29    1
     9    29    30    1
    10    30    31   ar
    11    31    32   ar
    12    32    33   ar
    13    33    34   ar
    14    34    35   ar
    15    35    36    1
    16    36    37    1
    17     2     1    1
    18     2     3    1
    19     3     4    1
    20     4     5    1
    21     5     6    1
    22     6     7   ar
    23     7     8   ar
    24     8     9   ar
    25     9    10   ar
    26    10    11   ar
    27    15    17    1
    28    17    18    1
    29    18    20    1
    30    20    21    1
    31    21    22    1
    32    22    23    1
    33    23    24    1
    34    24    25    1
    35    25    26    1
    36    37    28    1
    37    11     2    1
    38    26    21    1
    39    35    30   ar
    40    11     6   ar
    41    37    38    1
    42    18    19    1
@<TRIPOS>MOLECULE
*****
 38 42 0 0 0
SMALL
GASTEIGER

@<TRIPOS>ATOM
      1 N          63.9565   90.1785   13.6950 N.3     1  UNL1       -0.2679
      2 C          64.8821   91.3375   13.9184 C.3     1  UNL1        0.0978
      3 C          65.4344   91.6032   15.2874 C.3     1  UNL1        0.0224
      4 C          66.3600   92.7622   15.5108 C.3     1  UNL1        0.0065
      5 C          66.7333   93.6555   14.3652 C.3     1  UNL1        0.0277
      6 C          66.1810   93.3899   12.9962 C.ar    1  UNL1       -0.0073
      7 C          66.5543   94.2832   11.8504 C.ar    1  UNL1       -0.0015
      8 C          66.0020   94.0176   10.4814 C.ar    1  UNL1        0.0203
      9 C          65.0764   92.8585   10.2580 C.ar    1  UNL1        0.0985
     10 N          64.7031   91.9652   11.4036 N.ar    1  UNL1       -0.2471
     11 C          65.2554   92.2308   12.7728 C.ar    1  UNL1        0.0695
     12 C          64.2923   88.8305   14.2609 C.3     1  UNL1        0.0725
     13 C          63.8868   88.4834   15.6628 C.3     1  UNL1        0.0187
     14 C          62.8631   87.5106   17.2457 C.3     1  UNL1        0.0014
     15 C          63.6222   87.0546   16.0350 C.3     1  UNL1        0.0158
     16 C          64.3813   86.5987   14.8242 C.3     1  UNL1        0.0014
     17 C          63.3577   85.6259   16.4071 C.3     1  UNL1        0.0685
     18 N          62.4450   84.7874   15.5622 N.3     1  UNL1       -0.2975
     19 H          62.4444   85.2009   14.6298 H       1  UNL1        0.1232
     20 C          62.7201   83.3233   15.3865 C.3     1  UNL1        0.0687
     21 C          62.8180   82.7387   14.0086 C.3     1  UNL1        0.0207
     22 C          63.1252   83.6248   12.8380 C.3     1  UNL1        0.0335
     23 C          63.2230   83.0402   11.4601 C.3     1  UNL1        0.1422
     24 O          63.0137   81.5694   11.2528 O.3     1  UNL1       -0.3538
     25 C          62.7065   80.6832   12.4234 C.3     1  UNL1        0.1422
     26 C          62.6086   81.2678   13.8013 C.3     1  UNL1        0.0335
     27 C          62.6950   90.3673   12.9057 C.3     1  UNL1        0.0886
     28 C          62.2604   89.3195   11.9242 C.3     1  UNL1        0.0748
     29 C          61.3591   89.6883   10.7834 C.3     1  UNL1        0.0432
     30 C          60.9245   88.6405    9.8019 C.ar    1  UNL1       -0.0234
     31 C          60.0231   89.0093    8.6611 C.ar    1  UNL1       -0.0045
     32 C          59.5885   87.9615    7.6796 C.ar    1  UNL1       -0.0003
     33 C          60.0553   86.5449    7.8390 C.ar    1  UNL1       -0.0003
     34 C          60.9567   86.1762    8.9798 C.ar    1  UNL1       -0.0032
     35 C          61.3913   87.2239    9.9612 C.ar    1  UNL1       -0.0103
     36 C          62.2927   86.8552   11.1021 C.3     1  UNL1        0.0953
     37 N          62.7272   87.9030   12.0836 N.3     1  UNL1       -0.2934
     38 H          63.7467   87.9244   12.0593 H       1  UNL1        0.1236
@<TRIPOS>BOND
     1    14    15    1
     2    15    16    1
     3    15    13    1
     4    13    12    1
     5    12     1    1
     6     1    27    1
     7    28    27    1
     8    28    29    1
     9    29    30    1
    10    30    31   ar
    11    31    32   ar
    12    32    33   ar
    13    33    34   ar
    14    34    35   ar
    15    35    36    1
    16    36    37    1
    17     2     1    1
    18     2     3    1
    19     3     4    1
    20     4     5    1
    21     5     6    1
    22     6     7   ar
    23     7     8   ar
    24     8     9   ar
    25     9    10   ar
    26    10    11   ar
    27    15    17    1
    28    17    18    1
    29    18    20    1
    30    20    21    1
    31    21    22    1
    32    22    23    1
    33    23    24    1
    34    24    25    1
    35    25    26    1
    36    37    28    1
    37    11     2    1
    38    26    21    1
    39    35    30   ar
    40    11     6   ar
    41    37    38    1
    42    18    19    1
@<TRIPOS>MOLECULE
*****
 38 42 0 0 0
SMALL
GASTEIGER

@<TRIPOS>ATOM
      1 N          65.3095   92.3244   12.0616 N.3     1  UNL1       -0.2679
      2 C          66.3592   92.7066   11.0605 C.3     1  UNL1        0.0978
      3 C          67.3941   91.7057   10.6397 C.3     1  UNL1        0.0224
      4 C          68.4438   92.0879    9.6387 C.3     1  UNL1        0.0065
      5 C          68.4585   93.4710    9.0584 C.3     1  UNL1        0.0277
      6 C          67.4236   94.4719    9.4791 C.ar    1  UNL1       -0.0073
      7 C          67.4383   95.8550    8.8989 C.ar    1  UNL1       -0.0015
      8 C          66.4034   96.8560    9.3196 C.ar    1  UNL1        0.0203
      9 C          65.3537   96.4738   10.3207 C.ar    1  UNL1        0.0985
     10 N          65.3390   95.0907   10.9010 N.ar    1  UNL1       -0.2471
     11 C          66.3739   94.0897   10.4802 C.ar    1  UNL1        0.0695
     12 C          63.9132   92.0211   11.6054 C.3     1  UNL1        0.0725
     13 C          63.5529   90.6333   11.1645 C.3     1  UNL1        0.0187
     14 C          62.1143   90.3418    9.6332 C.3     1  UNL1        0.0014
     15 C          62.1151   90.2077   11.1271 C.3     1  UNL1        0.0158
     16 C          62.1159   90.0737   12.6211 C.3     1  UNL1        0.0014
     17 C          60.6772   89.7822   11.0897 C.3     1  UNL1        0.0685
     18 N          60.3106   88.3535   11.3629 N.3     1  UNL1       -0.2975
     19 H          59.3911   88.3648   11.8044 H       1  UNL1        0.1232
     20 C          60.2365   87.3691   10.2334 C.3     1  UNL1        0.0687
     21 C          61.3271   86.3559   10.0490 C.3     1  UNL1        0.0207
     22 C          61.8077   85.5499   11.2192 C.3     1  UNL1        0.0335
     23 C          62.8983   84.5367   11.0348 C.3     1  UNL1        0.1422
     24 O          63.5082   84.3294    9.6802 O.3     1  UNL1       -0.3538
     25 C          63.0276   85.1354    8.5099 C.3     1  UNL1        0.1422
     26 C          61.9371   86.1487    8.6943 C.3     1  UNL1        0.0335
     27 C          65.6562   92.2455   13.5188 C.3     1  UNL1        0.0886
     28 C          64.9619   91.2517   14.4022 C.3     1  UNL1        0.0748
     29 C          65.1187   89.7822   14.1459 C.3     1  UNL1        0.0432
     30 C          64.4243   88.7884   15.0293 C.ar    1  UNL1       -0.0234
     31 C          64.5811   87.3189   14.7730 C.ar    1  UNL1       -0.0045
     32 C          63.8868   86.3252   15.6564 C.ar    1  UNL1       -0.0003
     33 C          63.0356   86.8011   16.7961 C.ar    1  UNL1       -0.0003
     34 C          62.8788   88.2706   17.0525 C.ar    1  UNL1       -0.0032
     35 C          63.5732   89.2643   16.1691 C.ar    1  UNL1       -0.0103
     36 C          63.4164   90.7340   16.4254 C.3     1  UNL1        0.0953
     37 N          64.1107   91.7276   15.5420 N.3     1  UNL1       -0.2934
     38 H          64.7129   92.2877   16.1454 H       1  UNL1        0.1236
@<TRIPOS>BOND
     1    14    15    1
     2    15    16    1
     3    15    13    1
     4    13    12    1
     5    12     1    1
     6     1    27    1
     7    28    27    1
     8    28    29    1
     9    29    30    1
    10    30    31   ar
    11    31    32   ar
    12    32    33   ar
    13    33    34   ar
    14    34    35   ar
    15    35    36    1
    16    36    37    1
    17     2     1    1
    18     2     3    1
    19     3     4    1
    20     4     5    1
    21     5     6    1
    22     6     7   ar
    23     7     8   ar
    24     8     9   ar
    25     9    10   ar
    26    10    11   ar
    27    15    17    1
    28    17    18    1
    29    18    20    1
    30    20    21    1
    31    21    22    1
    32    22    23    1
    33    23    24    1
    34    24    25    1
    35    25    26    1
    36    37    28    1
    37    11     2    1
    38    26    21    1
    39    35    30   ar
    40    11     6   ar
    41    37    38    1
    42    18    19    1
@<TRIPOS>MOLECULE
*****
 38 42 0 0 0
SMALL
GASTEIGER

@<TRIPOS>ATOM
      1 N          63.4540   88.9914   13.5623 N.3     1  UNL1       -0.2679
      2 C          62.9691   89.2818   12.1728 C.3     1  UNL1        0.0978
      3 C          63.0889   90.6674   11.6110 C.3     1  UNL1        0.0224
      4 C          62.6041   90.9578   10.2215 C.3     1  UNL1        0.0065
      5 C          61.9994   89.8626    9.3939 C.3     1  UNL1        0.0277
      6 C          61.8797   88.4770    9.9558 C.ar    1  UNL1       -0.0073
      7 C          61.2750   87.3817    9.1282 C.ar    1  UNL1       -0.0015
      8 C          61.1552   85.9961    9.6901 C.ar    1  UNL1        0.0203
      9 C          61.6401   85.7057   11.0795 C.ar    1  UNL1        0.0985
     10 N          62.2447   86.8009   11.9071 N.ar    1  UNL1       -0.2471
     11 C          62.3645   88.1866   11.3452 C.ar    1  UNL1        0.0695
     12 C          64.1287   87.6861   13.8637 C.3     1  UNL1        0.0725
     13 C          64.2992   87.2408   15.2859 C.3     1  UNL1        0.0187
     14 C          63.1893   86.2399   16.7913 C.3     1  UNL1        0.0014
     15 C          64.0674   85.8056   15.6554 C.3     1  UNL1        0.0158
     16 C          64.9454   85.3713   14.5195 C.3     1  UNL1        0.0014
     17 C          63.8355   84.3705   16.0249 C.3     1  UNL1        0.0685
     18 N          62.5102   83.7277   15.7413 N.3     1  UNL1       -0.2975
     19 H          61.8119   84.2447   16.2756 H       1  UNL1        0.1232
     20 C          62.0031   83.6447   14.3320 C.3     1  UNL1        0.0687
     21 C          62.2620   82.4150   13.5130 C.3     1  UNL1        0.0207
     22 C          61.9808   81.0583   14.0876 C.3     1  UNL1        0.0335
     23 C          62.2397   79.8286   13.2686 C.3     1  UNL1        0.1422
     24 O          62.7798   79.9556   11.8750 O.3     1  UNL1       -0.3538
     25 C          63.0611   81.3123   11.3004 C.3     1  UNL1        0.1422
     26 C          62.8022   82.5421   12.1194 C.3     1  UNL1        0.0335
     27 C          63.2641   90.0063   14.6503 C.3     1  UNL1        0.0886
     28 C          64.4096   90.8791   15.0701 C.3     1  UNL1        0.0748
     29 C          65.6912   90.8609   14.2909 C.3     1  UNL1        0.0432
     30 C          66.8367   91.7336   14.7107 C.ar    1  UNL1       -0.0234
     31 C          68.1182   91.7154   13.9315 C.ar    1  UNL1       -0.0045
     32 C          69.2636   92.5882   14.3513 C.ar    1  UNL1       -0.0003
     33 C          69.1275   93.4791   15.5503 C.ar    1  UNL1       -0.0003
     34 C          67.8459   93.4973   16.3296 C.ar    1  UNL1       -0.0032
     35 C          66.7005   92.6246   15.9097 C.ar    1  UNL1       -0.0103
     36 C          65.4189   92.6427   16.6890 C.3     1  UNL1        0.0953
     37 N          64.2735   91.7700   16.2692 N.3     1  UNL1       -0.2934
     38 H          63.4829   92.3886   16.0881 H       1  UNL1        0.1236
@<TRIPOS>BOND
     1    14    15    1
     2    15    16    1
     3    15    13    1
     4    13    12    1
     5    12     1    1
     6     1    27    1
     7    28    27    1
     8    28    29    1
     9    29    30    1
    10    30    31   ar
    11    31    32   ar
    12    32    33   ar
    13    33    34   ar
    14    34    35   ar
    15    35    36    1
    16    36    37    1
    17     2     1    1
    18     2     3    1
    19     3     4    1
    20     4     5    1
    21     5     6    1
    22     6     7   ar
    23     7     8   ar
    24     8     9   ar
    25     9    10   ar
    26    10    11   ar
    27    15    17    1
    28    17    18    1
    29    18    20    1
    30    20    21    1
    31    21    22    1
    32    22    23    1
    33    23    24    1
    34    24    25    1
    35    25    26    1
    36    37    28    1
    37    11     2    1
    38    26    21    1
    39    35    30   ar
    40    11     6   ar
    41    37    38    1
    42    18    19    1
@<TRIPOS>MOLECULE
*****
 38 42 0 0 0
SMALL
GASTEIGER

@<TRIPOS>ATOM
      1 N          62.5243   87.3192   11.7297 N.3     1  UNL1       -0.2679
      2 C          62.8354   88.7603   11.4532 C.3     1  UNL1        0.0978
      3 C          62.4314   89.3776   10.1472 C.3     1  UNL1        0.0224
      4 C          62.7425   90.8186    9.8706 C.3     1  UNL1        0.0065
      5 C          63.4576   91.6425   10.9001 C.3     1  UNL1        0.0277
      6 C          63.8616   91.0252   12.2061 C.ar    1  UNL1       -0.0073
      7 C          64.5768   91.8490   13.2357 C.ar    1  UNL1       -0.0015
      8 C          64.9808   91.2318   14.5417 C.ar    1  UNL1        0.0203
      9 C          64.6697   89.7907   14.8183 C.ar    1  UNL1        0.0985
     10 N          63.9545   88.9668   13.7888 N.ar    1  UNL1       -0.2471
     11 C          63.5505   89.5841   12.4827 C.ar    1  UNL1        0.0695
     12 C          61.3470   86.6658   11.0686 C.3     1  UNL1        0.0725
     13 C          61.4355   86.2360    9.6342 C.3     1  UNL1        0.0187
     14 C          59.6194   87.3258    9.7529 C.3     1  UNL1        0.0014
     15 C          60.2849   86.4844    8.7045 C.3     1  UNL1        0.0158
     16 C          60.9503   85.6430    7.6561 C.3     1  UNL1        0.0014
     17 C          59.1343   86.7328    7.7748 C.3     1  UNL1        0.0685
     18 N          58.7208   88.1381    7.4519 N.3     1  UNL1       -0.2975
     19 H          58.3438   88.5388    8.3108 H       1  UNL1        0.1232
     20 C          59.7303   89.1146    6.9251 C.3     1  UNL1        0.0687
     21 C          59.3050   90.1924    5.9725 C.3     1  UNL1        0.0207
     22 C          60.3367   90.9667    5.2070 C.3     1  UNL1        0.0335
     23 C          59.9114   92.0446    4.2544 C.3     1  UNL1        0.1422
     24 O          58.4544   92.3481    4.0674 O.3     1  UNL1       -0.3538
     25 C          57.4226   91.5738    4.8330 C.3     1  UNL1        0.1422
     26 C          57.8479   90.4960    5.7855 C.3     1  UNL1        0.0335
     27 C          63.3904   86.5315   12.6674 C.3     1  UNL1        0.0886
     28 C          63.0099   85.1293   13.0407 C.3     1  UNL1        0.0748
     29 C          63.2492   84.0053   12.0767 C.3     1  UNL1        0.0432
     30 C          62.8688   82.6032   12.4501 C.ar    1  UNL1       -0.0234
     31 C          63.1081   81.4792   11.4861 C.ar    1  UNL1       -0.0045
     32 C          62.7276   80.0772   11.8595 C.ar    1  UNL1       -0.0003
     33 C          62.1078   79.7991   13.1968 C.ar    1  UNL1       -0.0003
     34 C          61.8685   80.9231   14.1608 C.ar    1  UNL1       -0.0032
     35 C          62.2490   82.3251   13.7875 C.ar    1  UNL1       -0.0103
     36 C          62.0097   83.4492   14.7515 C.3     1  UNL1        0.0953
     37 N          62.3902   84.8513   14.3781 N.3     1  UNL1       -0.2934
     38 H          63.0533   85.1740   15.0827 H       1  UNL1        0.1236
@<TRIPOS>BOND
     1    14    15    1
     2    15    16    1
     3    15    13    1
     4    13    12    1
     5    12     1    1
     6     1    27    1
     7    28    27    1
     8    28    29    1
     9    29    30    1
    10    30    31   ar
    11    31    32   ar
    12    32    33   ar
    13    33    34   ar
    14    34    35   ar
    15    35    36    1
    16    36    37    1
    17     2     1    1
    18     2     3    1
    19     3     4    1
    20     4     5    1
    21     5     6    1
    22     6     7   ar
    23     7     8   ar
    24     8     9   ar
    25     9    10   ar
    26    10    11   ar
    27    15    17    1
    28    17    18    1
    29    18    20    1
    30    20    21    1
    31    21    22    1
    32    22    23    1
    33    23    24    1
    34    24    25    1
    35    25    26    1
    36    37    28    1
    37    11     2    1
    38    26    21    1
    39    35    30   ar
    40    11     6   ar
    41    37    38    1
    42    18    19    1
@<TRIPOS>MOLECULE
*****
 38 42 0 0 0
SMALL
GASTEIGER

@<TRIPOS>ATOM
      1 N          61.7369   87.6905   11.1945 N.3     1  UNL1       -0.2679
      2 C          62.3181   86.4510   10.5814 C.3     1  UNL1        0.0978
      3 C          62.6039   86.4053    9.1097 C.3     1  UNL1        0.0224
      4 C          63.1851   85.1658    8.4966 C.3     1  UNL1        0.0065
      5 C          63.4806   83.9720    9.3553 C.3     1  UNL1        0.0277
      6 C          63.1948   84.0177   10.8271 C.ar    1  UNL1       -0.0073
      7 C          63.4902   82.8238   11.6859 C.ar    1  UNL1       -0.0015
      8 C          63.2045   82.8695   13.1577 C.ar    1  UNL1        0.0203
      9 C          62.6232   84.1090   13.7708 C.ar    1  UNL1        0.0985
     10 N          62.3278   85.3028   12.9120 N.ar    1  UNL1       -0.2471
     11 C          62.6136   85.2572   11.4402 C.ar    1  UNL1        0.0695
     12 C          60.4028   88.1997   10.7352 C.3     1  UNL1        0.0725
     13 C          59.6417   87.4594    9.6756 C.3     1  UNL1        0.0187
     14 C          60.0342   89.3553    8.8089 C.3     1  UNL1        0.0014
     15 C          59.5044   88.0467    8.3022 C.3     1  UNL1        0.0158
     16 C          58.9746   86.7381    7.7956 C.3     1  UNL1        0.0014
     17 C          59.3671   88.6340    6.9289 C.3     1  UNL1        0.0685
     18 N          59.7261   90.0704    6.6881 N.3     1  UNL1       -0.2975
     19 H          60.7254   90.0941    6.4850 H       1  UNL1        0.1232
     20 C          59.0441   90.8411    5.5968 C.3     1  UNL1        0.0687
     21 C          59.8584   91.5092    4.5288 C.3     1  UNL1        0.0207
     22 C          59.2065   92.4706    3.5798 C.3     1  UNL1        0.0335
     23 C          60.0208   93.1387    2.5118 C.3     1  UNL1        0.1422
     24 O          61.4870   92.8453    2.3928 O.3     1  UNL1       -0.3538
     25 C          62.1390   91.8838    3.3419 C.3     1  UNL1        0.1422
     26 C          61.3246   91.2158    4.4098 C.3     1  UNL1        0.0335
     27 C          62.4897   88.4208   12.2668 C.3     1  UNL1        0.0886
     28 C          63.2160   89.6920   11.9403 C.3     1  UNL1        0.0748
     29 C          64.0944   90.3395   12.9694 C.3     1  UNL1        0.0432
     30 C          64.8206   91.6107   12.6429 C.ar    1  UNL1       -0.0234
     31 C          65.6990   92.2582   13.6720 C.ar    1  UNL1       -0.0045
     32 C          66.4253   93.5294   13.3455 C.ar    1  UNL1       -0.0003
     33 C          66.2731   94.1531   11.9898 C.ar    1  UNL1       -0.0003
     34 C          65.3947   93.5056   10.9607 C.ar    1  UNL1       -0.0032
     35 C          64.6685   92.2344   11.2872 C.ar    1  UNL1       -0.0103
     36 C          63.7900   91.5869   10.2581 C.3     1  UNL1        0.0953
     37 N          63.0638   90.3157   10.5846 N.3     1  UNL1       -0.2934
     38 H          63.3684   89.6195    9.9043 H       1  UNL1        0.1236
@<TRIPOS>BOND
     1    14    15    1
     2    15    16    1
     3    15    13    1
     4    13    12    1
     5    12     1    1
     6     1    27    1
     7    28    27    1
     8    28    29    1
     9    29    30    1
    10    30    31   ar
    11    31    32   ar
    12    32    33   ar
    13    33    34   ar
    14    34    35   ar
    15    35    36    1
    16    36    37    1
    17     2     1    1
    18     2     3    1
    19     3     4    1
    20     4     5    1
    21     5     6    1
    22     6     7   ar
    23     7     8   ar
    24     8     9   ar
    25     9    10   ar
    26    10    11   ar
    27    15    17    1
    28    17    18    1
    29    18    20    1
    30    20    21    1
    31    21    22    1
    32    22    23    1
    33    23    24    1
    34    24    25    1
    35    25    26    1
    36    37    28    1
    37    11     2    1
    38    26    21    1
    39    35    30   ar
    40    11     6   ar
    41    37    38    1
    42    18    19    1
@<TRIPOS>MOLECULE
*****
 38 42 0 0 0
SMALL
GASTEIGER

@<TRIPOS>ATOM
      1 N          63.7929   90.3379   13.8142 N.3     1  UNL1       -0.2679
      2 C          64.6386   91.4149   13.2019 C.3     1  UNL1        0.0978
      3 C          64.4782   91.7607   11.7512 C.3     1  UNL1        0.0224
      4 C          65.3239   92.8377   11.1390 C.3     1  UNL1        0.0065
      5 C          66.3300   93.5689   11.9774 C.3     1  UNL1        0.0277
      6 C          66.4904   93.2231   13.4281 C.ar    1  UNL1       -0.0073
      7 C          67.4966   93.9543   14.2667 C.ar    1  UNL1       -0.0015
      8 C          67.6570   93.6085   15.7174 C.ar    1  UNL1        0.0203
      9 C          66.8113   92.5315   16.3297 C.ar    1  UNL1        0.0985
     10 N          65.8052   91.8003   15.4912 N.ar    1  UNL1       -0.2471
     11 C          65.6447   92.1461   14.0404 C.ar    1  UNL1        0.0695
     12 C          62.4834   89.9641   13.1854 C.3     1  UNL1        0.0725
     13 C          62.4618   89.2351   11.8746 C.3     1  UNL1        0.0187
     14 C          60.3491   89.3619   12.0166 C.3     1  UNL1        0.0014
     15 C          61.3459   89.4747   10.9014 C.3     1  UNL1        0.0158
     16 C          62.3426   89.5875    9.7862 C.3     1  UNL1        0.0014
     17 C          60.2299   89.7144    9.9282 C.3     1  UNL1        0.0685
     18 N          60.0243   88.7754    8.7767 N.3     1  UNL1       -0.2975
     19 H          60.8562   88.8420    8.1903 H       1  UNL1        0.1232
     20 C          59.7901   87.3158    9.0317 C.3     1  UNL1        0.0687
     21 C          60.9558   86.3913    9.2225 C.3     1  UNL1        0.0207
     22 C          61.7443   85.9237    8.0352 C.3     1  UNL1        0.0335
     23 C          62.9100   84.9991    8.2260 C.3     1  UNL1        0.1422
     24 O          63.2872   84.5422    9.6039 O.3     1  UNL1       -0.3538
     25 C          62.4987   85.0099   10.7913 C.3     1  UNL1        0.1422
     26 C          61.3330   85.9344   10.6006 C.3     1  UNL1        0.0335
     27 C          64.2567   89.6347   15.0553 C.3     1  UNL1        0.0886
     28 C          63.9069   88.1927   15.2755 C.3     1  UNL1        0.0748
     29 C          64.3671   87.1517   14.2985 C.3     1  UNL1        0.0432
     30 C          64.0173   85.7097   14.5187 C.ar    1  UNL1       -0.0234
     31 C          64.4775   84.6687   13.5418 C.ar    1  UNL1       -0.0045
     32 C          64.1277   83.2268   13.7620 C.ar    1  UNL1       -0.0003
     33 C          63.3176   82.8259   14.9591 C.ar    1  UNL1       -0.0003
     34 C          62.8574   83.8669   15.9361 C.ar    1  UNL1       -0.0032
     35 C          63.2072   85.3088   15.7159 C.ar    1  UNL1       -0.0103
     36 C          62.7470   86.3499   16.6928 C.3     1  UNL1        0.0953
     37 N          63.0969   87.7918   16.4726 N.3     1  UNL1       -0.2934
     38 H          63.6162   88.0978   17.2954 H       1  UNL1        0.1236
@<TRIPOS>BOND
     1    14    15    1
     2    15    16    1
     3    15    13    1
     4    13    12    1
     5    12     1    1
     6     1    27    1
     7    28    27    1
     8    28    29    1
     9    29    30    1
    10    30    31   ar
    11    31    32   ar
    12    32    33   ar
    13    33    34   ar
    14    34    35   ar
    15    35    36    1
    16    36    37    1
    17     2     1    1
    18     2     3    1
    19     3     4    1
    20     4     5    1
    21     5     6    1
    22     6     7   ar
    23     7     8   ar
    24     8     9   ar
    25     9    10   ar
    26    10    11   ar
    27    15    17    1
    28    17    18    1
    29    18    20    1
    30    20    21    1
    31    21    22    1
    32    22    23    1
    33    23    24    1
    34    24    25    1
    35    25    26    1
    36    37    28    1
    37    11     2    1
    38    26    21    1
    39    35    30   ar
    40    11     6   ar
    41    37    38    1
    42    18    19    1
@<TRIPOS>MOLECULE
*****
 38 42 0 0 0
SMALL
GASTEIGER

@<TRIPOS>ATOM
      1 N          63.3976   88.3118   13.2469 N.3     1  UNL1       -0.2679
      2 C          62.6766   87.5575   12.1693 C.3     1  UNL1        0.0978
      3 C          62.8299   86.0690   12.0646 C.3     1  UNL1        0.0224
      4 C          62.1089   85.3148   10.9870 C.3     1  UNL1        0.0065
      5 C          61.2347   86.0489   10.0141 C.3     1  UNL1        0.0277
      6 C          61.0814   87.5373   10.1188 C.ar    1  UNL1       -0.0073
      7 C          60.2071   88.2716    9.1458 C.ar    1  UNL1       -0.0015
      8 C          60.0538   89.7600    9.2505 C.ar    1  UNL1        0.0203
      9 C          60.7747   90.5143   10.3281 C.ar    1  UNL1        0.0985
     10 N          61.6490   89.7801   11.3010 N.ar    1  UNL1       -0.2471
     11 C          61.8024   88.2916   11.1964 C.ar    1  UNL1        0.0695
     12 C          64.3360   87.5902   14.1681 C.3     1  UNL1        0.0725
     13 C          63.8739   87.1719   15.5325 C.3     1  UNL1        0.0187
     14 C          62.6373   86.0384   16.8308 C.3     1  UNL1        0.0014
     15 C          63.7382   85.7154   15.8646 C.3     1  UNL1        0.0158
     16 C          64.8390   85.3925   14.8983 C.3     1  UNL1        0.0014
     17 C          63.6024   84.2590   16.1966 C.3     1  UNL1        0.0685
     18 N          64.1236   83.2215   15.2469 N.3     1  UNL1       -0.2975
     19 H          64.7235   82.6003   15.7897 H       1  UNL1        0.1232
     20 C          63.1663   82.3479   14.4914 C.3     1  UNL1        0.0687
     21 C          63.3868   82.0806   13.0320 C.3     1  UNL1        0.0207
     22 C          62.6485   80.9648   12.3539 C.3     1  UNL1        0.0335
     23 C          62.8690   80.6976   10.8945 C.3     1  UNL1        0.1422
     24 O          63.8278   81.5461   10.1131 O.3     1  UNL1       -0.3538
     25 C          64.5662   82.6620   10.7912 C.3     1  UNL1        0.1422
     26 C          64.3457   82.9293   12.2506 C.3     1  UNL1        0.0335
     27 C          63.1802   89.7876   13.4033 C.3     1  UNL1        0.0886
     28 C          64.1811   90.6182   14.1506 C.3     1  UNL1        0.0748
     29 C          65.5553   90.8246   13.5859 C.3     1  UNL1        0.0432
     30 C          66.5563   91.6552   14.3331 C.ar    1  UNL1       -0.0234
     31 C          67.9305   91.8616   13.7684 C.ar    1  UNL1       -0.0045
     32 C          68.9314   92.6921   14.5156 C.ar    1  UNL1       -0.0003
     33 C          68.5581   93.3163   15.8275 C.ar    1  UNL1       -0.0003
     34 C          67.1839   93.1098   16.3922 C.ar    1  UNL1       -0.0032
     35 C          66.1830   92.2793   15.6450 C.ar    1  UNL1       -0.0103
     36 C          64.8087   92.0728   16.2097 C.3     1  UNL1        0.0953
     37 N          63.8078   91.2423   15.4625 N.3     1  UNL1       -0.2934
     38 H          63.0019   91.8417   15.2847 H       1  UNL1        0.1236
@<TRIPOS>BOND
     1    14    15    1
     2    15    16    1
     3    15    13    1
     4    13    12    1
     5    12     1    1
     6     1    27    1
     7    28    27    1
     8    28    29    1
     9    29    30    1
    10    30    31   ar
    11    31    32   ar
    12    32    33   ar
    13    33    34   ar
    14    34    35   ar
    15    35    36    1
    16    36    37    1
    17     2     1    1
    18     2     3    1
    19     3     4    1
    20     4     5    1
    21     5     6    1
    22     6     7   ar
    23     7     8   ar
    24     8     9   ar
    25     9    10   ar
    26    10    11   ar
    27    15    17    1
    28    17    18    1
    29    18    20    1
    30    20    21    1
    31    21    22    1
    32    22    23    1
    33    23    24    1
    34    24    25    1
    35    25    26    1
    36    37    28    1
    37    11     2    1
    38    26    21    1
    39    35    30   ar
    40    11     6   ar
    41    37    38    1
    42    18    19    1
@<TRIPOS>MOLECULE
*****
 38 42 0 0 0
SMALL
GASTEIGER

@<TRIPOS>ATOM
      1 N          61.9855   87.4451   11.2430 N.3     1  UNL1       -0.2679
      2 C          61.0724   87.1864   10.0814 C.3     1  UNL1        0.0978
      3 C          59.7043   87.8006   10.0516 C.3     1  UNL1        0.0224
      4 C          58.7912   87.5418    8.8900 C.3     1  UNL1        0.0065
      5 C          59.2461   86.6688    7.7583 C.3     1  UNL1        0.0277
      6 C          60.6143   86.0546    7.7882 C.ar    1  UNL1       -0.0073
      7 C          61.0693   85.1816    6.6564 C.ar    1  UNL1       -0.0015
      8 C          62.4374   84.5674    6.6863 C.ar    1  UNL1        0.0203
      9 C          63.3506   84.8261    7.8478 C.ar    1  UNL1        0.0985
     10 N          62.8956   85.6991    8.9795 N.ar    1  UNL1       -0.2471
     11 C          61.5274   86.3134    8.9497 C.ar    1  UNL1        0.0695
     12 C          61.7702   88.6480   12.1128 C.3     1  UNL1        0.0725
     13 C          61.7824   90.0215   11.5099 C.3     1  UNL1        0.0187
     14 C          63.3294   90.4750   12.8887 C.3     1  UNL1        0.0014
     15 C          63.0615   90.8027   11.4497 C.3     1  UNL1        0.0158
     16 C          62.7936   91.1304   10.0107 C.3     1  UNL1        0.0014
     17 C          64.3405   91.5840   11.3895 C.3     1  UNL1        0.0685
     18 N          64.8789   92.2380   12.6274 N.3     1  UNL1       -0.2975
     19 H          65.1524   91.4875   13.2617 H       1  UNL1        0.1232
     20 C          66.0478   93.1734   12.5337 C.3     1  UNL1        0.0687
     21 C          66.7170   93.4073   11.2118 C.3     1  UNL1        0.0207
     22 C          66.4707   94.6826   10.4617 C.3     1  UNL1        0.0335
     23 C          67.1399   94.9165    9.1398 C.3     1  UNL1        0.1422
     24 O          68.0555   93.8751    8.5680 O.3     1  UNL1       -0.3538
     25 C          68.3019   92.5997    9.3181 C.3     1  UNL1        0.1422
     26 C          67.6327   92.3658   10.6400 C.3     1  UNL1        0.0335
     27 C          63.1140   86.5010   11.5347 C.3     1  UNL1        0.0886
     28 C          62.8443   85.2053   12.2408 C.3     1  UNL1        0.0748
     29 C          62.9924   83.9059   11.5061 C.3     1  UNL1        0.0432
     30 C          62.7227   82.6102   12.2121 C.ar    1  UNL1       -0.0234
     31 C          62.8707   81.3108   11.4774 C.ar    1  UNL1       -0.0045
     32 C          62.6011   80.0152   12.1835 C.ar    1  UNL1       -0.0003
     33 C          62.1834   80.0188   13.6241 C.ar    1  UNL1       -0.0003
     34 C          62.0354   81.3182   14.3588 C.ar    1  UNL1       -0.0032
     35 C          62.3051   82.6138   13.6528 C.ar    1  UNL1       -0.0103
     36 C          62.1570   83.9133   14.3874 C.3     1  UNL1        0.0953
     37 N          62.4267   85.2089   13.6814 N.3     1  UNL1       -0.2934
     38 H          63.1675   85.6791   14.2016 H       1  UNL1        0.1236
@<TRIPOS>BOND
     1    14    15    1
     2    15    16    1
     3    15    13    1
     4    13    12    1
     5    12     1    1
     6     1    27    1
     7    28    27    1
     8    28    29    1
     9    29    30    1
    10    30    31   ar
    11    31    32   ar
    12    32    33   ar
    13    33    34   ar
    14    34    35   ar
    15    35    36    1
    16    36    37    1
    17     2     1    1
    18     2     3    1
    19     3     4    1
    20     4     5    1
    21     5     6    1
    22     6     7   ar
    23     7     8   ar
    24     8     9   ar
    25     9    10   ar
    26    10    11   ar
    27    15    17    1
    28    17    18    1
    29    18    20    1
    30    20    21    1
    31    21    22    1
    32    22    23    1
    33    23    24    1
    34    24    25    1
    35    25    26    1
    36    37    28    1
    37    11     2    1
    38    26    21    1
    39    35    30   ar
    40    11     6   ar
    41    37    38    1
    42    18    19    1
