@<TRIPOS>MOLECULE
*****
 31 33 0 0 0
SMALL
GASTEIGER

@<TRIPOS>ATOM
      1 C          60.2558   86.3494    8.0204 C.2     1  UNL1        0.2296
      2 O          60.3929   85.2138    7.0501 O.2     1  UNL1       -0.2745
      3 N          61.3936   86.6966    8.9343 N.am    1  UNL1       -0.2543
      4 C          61.2564   87.8322    9.9047 C.ar    1  UNL1        0.0565
      5 C          60.0142   87.9632   10.7351 C.ar    1  UNL1        0.0445
      6 C          59.8771   89.0988   11.7055 C.ar    1  UNL1        0.1415
      7 F          58.6348   89.2299   12.5360 F       1  UNL1       -0.2041
      8 C          60.9822   90.1034   11.8453 C.ar    1  UNL1        0.0328
      9 C          62.2244   89.9724   11.0149 C.ar    1  UNL1        0.0406
     10 C          62.3615   88.8368   10.0446 C.ar    1  UNL1        0.0181
     11 C          63.3295   90.9769   11.1548 C.ar    1  UNL1        0.1807
     12 N          64.1352   91.2346   12.3935 N.ar    1  UNL1       -0.1083
     13 N          65.1266   92.3172   12.0848 N.ar    1  UNL1       -0.0229
     14 N          64.9336   92.7285   10.6553 N.ar    1  UNL1       -0.0464
     15 N          63.8230   91.9002   10.0805 N.ar    1  UNL1       -0.2388
     16 H          63.4784   91.9532    9.1598 H       1  UNL1        0.1923
     17 C          58.9810   87.1379    8.0770 C.3     1  UNL1        0.0856
     18 C          58.7009   88.1862    7.0413 C.3     1  UNL1        0.0096
     19 C          59.4004   90.3591    5.8007 C.3     1  UNL1        0.0000
     20 C          59.6052   89.3763    6.9152 C.3     1  UNL1        0.0005
     21 C          62.6684   85.9082    8.8777 C.3     1  UNL1        0.1247
     22 C          62.9396   84.8463    9.9019 C.ar    1  UNL1       -0.0020
     23 C          62.3430   84.9575   11.2736 C.ar    1  UNL1       -0.0027
     24 C          62.6142   83.8956   12.2978 C.ar    1  UNL1        0.0036
     25 C          63.4820   82.7226   11.9502 C.ar    1  UNL1        0.0714
     26 C          64.0786   82.6114   10.5784 C.ar    1  UNL1        0.0036
     27 C          63.8074   83.6732    9.5543 C.ar    1  UNL1       -0.0027
     28 C          63.7532   81.6607   12.9744 C.3     1  UNL1        0.4186
     29 F          64.0244   80.5989   13.9985 F       1  UNL1       -0.1659
     30 F          63.0338   80.6564   12.1236 F       1  UNL1       -0.1659
     31 F          64.4726   82.6650   13.8251 F       1  UNL1       -0.1659
@<TRIPOS>BOND
     1    19    20    1
     2    20    18    1
     3    18    17    1
     4    17     1    1
     5     1     2    2
     6     1     3   am
     7     3    21    1
     8    21    22    1
     9    22    23   ar
    10    23    24   ar
    11    24    25   ar
    12    25    28    1
    13    28    29    1
    14    28    30    1
    15    28    31    1
    16    25    26   ar
    17    26    27   ar
    18     3     4    1
    19     4     5   ar
    20     5     6   ar
    21     6     7    1
    22     6     8   ar
    23     8     9   ar
    24     9    11    1
    25    11    12   ar
    26    12    13   ar
    27    13    14   ar
    28    14    15   ar
    29     9    10   ar
    30    27    22   ar
    31    10     4   ar
    32    15    11   ar
    33    15    16    1
@<TRIPOS>MOLECULE
*****
 31 33 0 0 0
SMALL
GASTEIGER

@<TRIPOS>ATOM
      1 C          60.3813   88.9267    9.6724 C.2     1  UNL1        0.2296
      2 O          59.7909   90.2795    9.9392 O.2     1  UNL1       -0.2745
      3 N          61.3860   88.3461   10.6229 N.am    1  UNL1       -0.2543
      4 C          61.9764   86.9932   10.3560 C.ar    1  UNL1        0.0565
      5 C          62.3326   86.5935    8.9549 C.ar    1  UNL1        0.0445
      6 C          62.9230   85.2407    8.6880 C.ar    1  UNL1        0.1415
      7 F          63.2792   84.8409    7.2868 F       1  UNL1       -0.2041
      8 C          63.1573   84.2876    9.8223 C.ar    1  UNL1        0.0328
      9 C          62.8011   84.6873   11.2235 C.ar    1  UNL1        0.0406
     10 C          62.2107   86.0401   11.4904 C.ar    1  UNL1        0.0181
     11 C          63.0354   83.7342   12.3579 C.ar    1  UNL1        0.1807
     12 N          63.7067   82.3963   12.2610 N.ar    1  UNL1       -0.1083
     13 N          63.7257   81.7869   13.6315 N.ar    1  UNL1       -0.0229
     14 N          63.0662   82.7482   14.5754 N.ar    1  UNL1       -0.0464
     15 N          62.6396   83.9517   13.7882 N.ar    1  UNL1       -0.2388
     16 H          62.1804   84.7450   14.1474 H       1  UNL1        0.1923
     17 C          59.9672   88.1545    8.4549 C.3     1  UNL1        0.0856
     18 C          59.0392   88.7750    7.4530 C.3     1  UNL1        0.0096
     19 C          58.6610   90.5554    5.5991 C.3     1  UNL1        0.0000
     20 C          59.5849   89.6649    6.3759 C.3     1  UNL1        0.0005
     21 C          61.8002   89.1183   11.8404 C.3     1  UNL1        0.1247
     22 C          62.8490   90.1852   11.7310 C.ar    1  UNL1       -0.0020
     23 C          63.0969   90.8609   10.4150 C.ar    1  UNL1       -0.0027
     24 C          64.1457   91.9278   10.3057 C.ar    1  UNL1        0.0036
     25 C          64.9464   92.3188   11.5123 C.ar    1  UNL1        0.0714
     26 C          64.6984   91.6430   12.8282 C.ar    1  UNL1        0.0036
     27 C          63.6497   90.5762   12.9376 C.ar    1  UNL1       -0.0027
     28 C          65.9952   93.3857   11.4029 C.3     1  UNL1        0.4186
     29 F          67.0440   94.4525   11.2936 F       1  UNL1       -0.1659
     30 F          66.1043   93.1274    9.9293 F       1  UNL1       -0.1659
     31 F          65.8862   93.6439   12.8764 F       1  UNL1       -0.1659
@<TRIPOS>BOND
     1    19    20    1
     2    20    18    1
     3    18    17    1
     4    17     1    1
     5     1     2    2
     6     1     3   am
     7     3    21    1
     8    21    22    1
     9    22    23   ar
    10    23    24   ar
    11    24    25   ar
    12    25    28    1
    13    28    29    1
    14    28    30    1
    15    28    31    1
    16    25    26   ar
    17    26    27   ar
    18     3     4    1
    19     4     5   ar
    20     5     6   ar
    21     6     7    1
    22     6     8   ar
    23     8     9   ar
    24     9    11    1
    25    11    12   ar
    26    12    13   ar
    27    13    14   ar
    28    14    15   ar
    29     9    10   ar
    30    27    22   ar
    31    10     4   ar
    32    15    11   ar
    33    15    16    1
@<TRIPOS>MOLECULE
*****
 31 33 0 0 0
SMALL
GASTEIGER

@<TRIPOS>ATOM
      1 C          60.2602   89.0638    9.6536 C.2     1  UNL1        0.2296
      2 O          59.4171   88.1571    8.8068 O.2     1  UNL1       -0.2745
      3 N          61.7116   88.7531    9.8698 N.am    1  UNL1       -0.2543
      4 C          62.5547   89.6599   10.7166 C.ar    1  UNL1        0.0565
      5 C          63.3921   90.7242   10.0717 C.ar    1  UNL1        0.0445
      6 C          64.2351   91.6310   10.9186 C.ar    1  UNL1        0.1415
      7 F          65.0727   92.6953   10.2737 F       1  UNL1       -0.2041
      8 C          64.2406   91.4734   12.4103 C.ar    1  UNL1        0.0328
      9 C          63.4032   90.4091   13.0551 C.ar    1  UNL1        0.0406
     10 C          62.5602   89.5024   12.2083 C.ar    1  UNL1        0.0181
     11 C          63.4087   90.2516   14.5468 C.ar    1  UNL1        0.1807
     12 N          63.5907   91.3527   15.5490 N.ar    1  UNL1       -0.1083
     13 N          63.5277   90.7469   16.9198 N.ar    1  UNL1       -0.0229
     14 N          63.3067   89.2714   16.7648 N.ar    1  UNL1       -0.0464
     15 N          63.2332   88.9653   15.2982 N.ar    1  UNL1       -0.2388
     16 H          63.0941   88.0762   14.8989 H       1  UNL1        0.1923
     17 C          59.6518   90.2814   10.2842 C.3     1  UNL1        0.0856
     18 C          59.2228   90.2468   11.7211 C.3     1  UNL1        0.0096
     19 C          57.8475   88.6708   13.2622 C.3     1  UNL1        0.0000
     20 C          59.0645   88.9317   12.4251 C.3     1  UNL1        0.0005
     21 C          62.3200   87.5357    9.2392 C.3     1  UNL1        0.1247
     22 C          62.5497   86.3013   10.0600 C.ar    1  UNL1       -0.0020
     23 C          63.1328   85.0749    9.4230 C.ar    1  UNL1       -0.0027
     24 C          63.3625   83.8406   10.2437 C.ar    1  UNL1        0.0036
     25 C          63.0090   83.8327   11.7014 C.ar    1  UNL1        0.0714
     26 C          62.4259   85.0591   12.3384 C.ar    1  UNL1        0.0036
     27 C          62.1963   86.2934   11.5177 C.ar    1  UNL1       -0.0027
     28 C          63.2387   82.5983   12.5222 C.3     1  UNL1        0.4186
     29 F          63.4684   81.3639   13.3429 F       1  UNL1       -0.1659
     30 F          64.2037   83.3531   13.3876 F       1  UNL1       -0.1659
     31 F          62.2738   81.8434   11.6568 F       1  UNL1       -0.1659
@<TRIPOS>BOND
     1    19    20    1
     2    20    18    1
     3    18    17    1
     4    17     1    1
     5     1     2    2
     6     1     3   am
     7     3    21    1
     8    21    22    1
     9    22    23   ar
    10    23    24   ar
    11    24    25   ar
    12    25    28    1
    13    28    29    1
    14    28    30    1
    15    28    31    1
    16    25    26   ar
    17    26    27   ar
    18     3     4    1
    19     4     5   ar
    20     5     6   ar
    21     6     7    1
    22     6     8   ar
    23     8     9   ar
    24     9    11    1
    25    11    12   ar
    26    12    13   ar
    27    13    14   ar
    28    14    15   ar
    29     9    10   ar
    30    27    22   ar
    31    10     4   ar
    32    15    11   ar
    33    15    16    1
@<TRIPOS>MOLECULE
*****
 31 33 0 0 0
SMALL
GASTEIGER

@<TRIPOS>ATOM
      1 C          62.0341   86.8381    9.8676 C.2     1  UNL1        0.2296
      2 O          61.4227   87.7790    8.8722 O.2     1  UNL1       -0.2745
      3 N          62.2140   87.2678   11.2934 N.am    1  UNL1       -0.2543
      4 C          62.8254   86.3267   12.2889 C.ar    1  UNL1        0.0565
      5 C          63.8308   86.8330   13.2802 C.ar    1  UNL1        0.0445
      6 C          64.4421   85.8920   14.2755 C.ar    1  UNL1        0.1415
      7 F          65.4476   86.3983   15.2669 F       1  UNL1       -0.2041
      8 C          64.0480   84.4448   14.2796 C.ar    1  UNL1        0.0328
      9 C          63.0426   83.9385   13.2883 C.ar    1  UNL1        0.0406
     10 C          62.4313   84.8795   12.2929 C.ar    1  UNL1        0.0181
     11 C          62.6485   82.4912   13.2923 C.ar    1  UNL1        0.1807
     12 N          63.0582   81.4629   12.2800 N.ar    1  UNL1       -0.1083
     13 N          62.4384   80.1543   12.6714 N.ar    1  UNL1       -0.0229
     14 N          61.6456   80.3737   13.9257 N.ar    1  UNL1       -0.0464
     15 N          61.7754   81.8180   14.3094 N.ar    1  UNL1       -0.2388
     16 H          61.3605   82.2484   15.0916 H       1  UNL1        0.1923
     17 C          62.4655   85.4674    9.4372 C.3     1  UNL1        0.0856
     18 C          62.8662   85.2200    8.0130 C.3     1  UNL1        0.0096
     19 C          62.2506   84.3345    5.6493 C.3     1  UNL1        0.0000
     20 C          61.8298   84.8394    6.9976 C.3     1  UNL1        0.0005
     21 C          61.7826   88.6384   11.7239 C.3     1  UNL1        0.1247
     22 C          62.7559   89.7790   11.6809 C.ar    1  UNL1       -0.0020
     23 C          63.5094   90.1689   12.9179 C.ar    1  UNL1       -0.0027
     24 C          64.4826   91.3095   12.8749 C.ar    1  UNL1        0.0036
     25 C          64.7022   92.0602   11.5950 C.ar    1  UNL1        0.0714
     26 C          63.9487   91.6703   10.3581 C.ar    1  UNL1        0.0036
     27 C          62.9755   90.5297   10.4010 C.ar    1  UNL1       -0.0027
     28 C          65.6755   93.2009   11.5521 C.3     1  UNL1        0.4186
     29 F          66.6487   94.3415   11.5092 F       1  UNL1       -0.1659
     30 F          65.6826   93.1385   10.0534 F       1  UNL1       -0.1659
     31 F          65.6684   93.2632   13.0508 F       1  UNL1       -0.1659
@<TRIPOS>BOND
     1    19    20    1
     2    20    18    1
     3    18    17    1
     4    17     1    1
     5     1     2    2
     6     1     3   am
     7     3    21    1
     8    21    22    1
     9    22    23   ar
    10    23    24   ar
    11    24    25   ar
    12    25    28    1
    13    28    29    1
    14    28    30    1
    15    28    31    1
    16    25    26   ar
    17    26    27   ar
    18     3     4    1
    19     4     5   ar
    20     5     6   ar
    21     6     7    1
    22     6     8   ar
    23     8     9   ar
    24     9    11    1
    25    11    12   ar
    26    12    13   ar
    27    13    14   ar
    28    14    15   ar
    29     9    10   ar
    30    27    22   ar
    31    10     4   ar
    32    15    11   ar
    33    15    16    1
@<TRIPOS>MOLECULE
*****
 31 33 0 0 0
SMALL
GASTEIGER

@<TRIPOS>ATOM
      1 C          65.1674   91.6814   13.4290 C.2     1  UNL1        0.2296
      2 O          65.2701   92.8928   12.5505 O.2     1  UNL1       -0.2745
      3 N          63.9253   90.8406   13.4051 N.am    1  UNL1       -0.2543
      4 C          63.8227   89.6292   14.2837 C.ar    1  UNL1        0.0565
      5 C          63.5348   89.7864   15.7474 C.ar    1  UNL1        0.0445
      6 C          63.4321   88.5750   16.6259 C.ar    1  UNL1        0.1415
      7 F          63.1442   88.7322   18.0896 F       1  UNL1       -0.2041
      8 C          63.6174   87.2063   16.0407 C.ar    1  UNL1        0.0328
      9 C          63.9052   87.0491   14.5771 C.ar    1  UNL1        0.0406
     10 C          64.0079   88.2605   13.6986 C.ar    1  UNL1        0.0181
     11 C          64.0904   85.6804   13.9920 C.ar    1  UNL1        0.1807
     12 N          63.3970   85.1398   12.7767 N.ar    1  UNL1       -0.1083
     13 N          63.8796   83.7373   12.5530 N.ar    1  UNL1       -0.0229
     14 N          64.8713   83.4110   13.6301 N.ar    1  UNL1       -0.0464
     15 N          65.0016   84.6119   14.5194 N.ar    1  UNL1       -0.2388
     16 H          65.5830   84.6858   15.3104 H       1  UNL1        0.1923
     17 C          66.3067   91.3106   14.3316 C.3     1  UNL1        0.0856
     18 C          66.5456   92.0843   15.5942 C.3     1  UNL1        0.0096
     19 C          68.7563   93.4446   15.7054 C.3     1  UNL1        0.0000
     20 C          67.9413   92.2545   16.1168 C.3     1  UNL1        0.0005
     21 C          62.7860   91.2113   12.5026 C.3     1  UNL1        0.1247
     22 C          62.1357   90.1647   11.6471 C.ar    1  UNL1       -0.0020
     23 C          62.8880   89.5612   10.4984 C.ar    1  UNL1       -0.0027
     24 C          62.2376   88.5146    9.6430 C.ar    1  UNL1        0.0036
     25 C          60.8349   88.0716    9.9364 C.ar    1  UNL1        0.0714
     26 C          60.0826   88.6751   11.0852 C.ar    1  UNL1        0.0036
     27 C          60.7329   89.7216   11.9405 C.ar    1  UNL1       -0.0027
     28 C          60.1846   87.0250    9.0810 C.3     1  UNL1        0.4186
     29 F          59.5342   85.9784    8.2256 F       1  UNL1       -0.1659
     30 F          60.7779   85.9510    9.9438 F       1  UNL1       -0.1659
     31 F          59.5912   88.0989    8.2182 F       1  UNL1       -0.1659
@<TRIPOS>BOND
     1    19    20    1
     2    20    18    1
     3    18    17    1
     4    17     1    1
     5     1     2    2
     6     1     3   am
     7     3    21    1
     8    21    22    1
     9    22    23   ar
    10    23    24   ar
    11    24    25   ar
    12    25    28    1
    13    28    29    1
    14    28    30    1
    15    28    31    1
    16    25    26   ar
    17    26    27   ar
    18     3     4    1
    19     4     5   ar
    20     5     6   ar
    21     6     7    1
    22     6     8   ar
    23     8     9   ar
    24     9    11    1
    25    11    12   ar
    26    12    13   ar
    27    13    14   ar
    28    14    15   ar
    29     9    10   ar
    30    27    22   ar
    31    10     4   ar
    32    15    11   ar
    33    15    16    1
@<TRIPOS>MOLECULE
*****
 31 33 0 0 0
SMALL
GASTEIGER

@<TRIPOS>ATOM
      1 C          60.4774   89.1370   10.2848 C.2     1  UNL1        0.2296
      2 O          60.0914   90.5862   10.2591 O.2     1  UNL1       -0.2745
      3 N          61.9257   88.7465   10.2860 N.am    1  UNL1       -0.2543
      4 C          62.3118   87.2972   10.3117 C.ar    1  UNL1        0.0565
      5 C          62.5944   86.5735    9.0286 C.ar    1  UNL1        0.0445
      6 C          62.9804   85.1243    9.0543 C.ar    1  UNL1        0.1415
      7 F          63.2631   84.4005    7.7712 F       1  UNL1       -0.2041
      8 C          63.0838   84.3988   10.3631 C.ar    1  UNL1        0.0328
      9 C          62.8012   85.1225   11.6462 C.ar    1  UNL1        0.0406
     10 C          62.4152   86.5717   11.6205 C.ar    1  UNL1        0.0181
     11 C          62.9045   84.3970   12.9550 C.ar    1  UNL1        0.1807
     12 N          62.3789   84.8794   14.2744 N.ar    1  UNL1       -0.1083
     13 N          62.7012   83.8422   15.3090 N.ar    1  UNL1       -0.0229
     14 N          63.4261   82.7188   14.6290 N.ar    1  UNL1       -0.0464
     15 N          63.5518   83.0617   13.1742 N.ar    1  UNL1       -0.2388
     16 H          63.9833   82.5076   12.4842 H       1  UNL1        0.1923
     17 C          59.4152   88.0781   10.3093 C.3     1  UNL1        0.0856
     18 C          59.0232   87.3796    9.0411 C.3     1  UNL1        0.0096
     19 C          59.0971   89.0475    7.0506 C.3     1  UNL1        0.0000
     20 C          59.6124   87.8147    7.7322 C.3     1  UNL1        0.0005
     21 C          62.9880   89.8053   10.2615 C.3     1  UNL1        0.1247
     22 C          63.5704   90.3133   11.5471 C.ar    1  UNL1       -0.0020
     23 C          63.3331   89.5652   12.8253 C.ar    1  UNL1       -0.0027
     24 C          63.9154   90.0733   14.1109 C.ar    1  UNL1        0.0036
     25 C          64.7351   91.3295   14.1182 C.ar    1  UNL1        0.0714
     26 C          64.9724   92.0776   12.8399 C.ar    1  UNL1        0.0036
     27 C          64.3900   91.5695   11.5544 C.ar    1  UNL1       -0.0027
     28 C          65.3175   91.8375   15.4038 C.3     1  UNL1        0.4186
     29 F          65.8998   92.3455   16.6894 F       1  UNL1       -0.1659
     30 F          66.5367   92.3063   14.6663 F       1  UNL1       -0.1659
     31 F          64.0984   91.3688   16.1413 F       1  UNL1       -0.1659
@<TRIPOS>BOND
     1    19    20    1
     2    20    18    1
     3    18    17    1
     4    17     1    1
     5     1     2    2
     6     1     3   am
     7     3    21    1
     8    21    22    1
     9    22    23   ar
    10    23    24   ar
    11    24    25   ar
    12    25    28    1
    13    28    29    1
    14    28    30    1
    15    28    31    1
    16    25    26   ar
    17    26    27   ar
    18     3     4    1
    19     4     5   ar
    20     5     6   ar
    21     6     7    1
    22     6     8   ar
    23     8     9   ar
    24     9    11    1
    25    11    12   ar
    26    12    13   ar
    27    13    14   ar
    28    14    15   ar
    29     9    10   ar
    30    27    22   ar
    31    10     4   ar
    32    15    11   ar
    33    15    16    1
@<TRIPOS>MOLECULE
*****
 31 33 0 0 0
SMALL
GASTEIGER

@<TRIPOS>ATOM
      1 C          62.7044   90.1288   13.3458 C.2     1  UNL1        0.2296
      2 O          61.3806   89.4341   13.4671 O.2     1  UNL1       -0.2745
      3 N          63.0269   90.9183   12.1118 N.am    1  UNL1       -0.2543
      4 C          64.3509   91.6130   11.9906 C.ar    1  UNL1        0.0565
      5 C          64.7998   92.1450   10.6620 C.ar    1  UNL1        0.0445
      6 C          66.1237   92.8397   10.5409 C.ar    1  UNL1        0.1415
      7 F          66.5728   93.3717    9.2121 F       1  UNL1       -0.2041
      8 C          66.9986   93.0025   11.7484 C.ar    1  UNL1        0.0328
      9 C          66.5496   92.4705   13.0770 C.ar    1  UNL1        0.0406
     10 C          65.2257   91.7758   13.1982 C.ar    1  UNL1        0.0181
     11 C          67.4244   92.6333   14.2846 C.ar    1  UNL1        0.1807
     12 N          67.8709   93.9352   14.8809 N.ar    1  UNL1       -0.1083
     13 N          68.7288   93.6293   16.0727 N.ar    1  UNL1       -0.0229
     14 N          68.8126   92.1382   16.2129 N.ar    1  UNL1       -0.0464
     15 N          68.0065   91.5226   15.1078 N.ar    1  UNL1       -0.2388
     16 H          67.8813   90.5589   14.9505 H       1  UNL1        0.1923
     17 C          63.7058   90.0342   14.4587 C.3     1  UNL1        0.0856
     18 C          63.9609   88.7162   15.1279 C.3     1  UNL1        0.0096
     19 C          64.6063   86.2043   14.9740 C.3     1  UNL1        0.0000
     20 C          64.2793   87.5051   14.3023 C.3     1  UNL1        0.0005
     21 C          62.0256   91.0129   10.9990 C.3     1  UNL1        0.1247
     22 C          61.6464   89.7853   10.2248 C.ar    1  UNL1       -0.0020
     23 C          62.5228   88.5689   10.2712 C.ar    1  UNL1       -0.0027
     24 C          62.1436   87.3414    9.4970 C.ar    1  UNL1        0.0036
     25 C          60.8880   87.3304    8.6764 C.ar    1  UNL1        0.0714
     26 C          60.0116   88.5468    8.6300 C.ar    1  UNL1        0.0036
     27 C          60.3908   89.7743    9.4042 C.ar    1  UNL1       -0.0027
     28 C          60.5088   86.1028    7.9022 C.3     1  UNL1        0.4186
     29 F          60.1297   84.8753    7.1280 F       1  UNL1       -0.1659
     30 F          59.0593   86.4622    8.0421 F       1  UNL1       -0.1659
     31 F          61.9584   85.7434    7.7622 F       1  UNL1       -0.1659
@<TRIPOS>BOND
     1    19    20    1
     2    20    18    1
     3    18    17    1
     4    17     1    1
     5     1     2    2
     6     1     3   am
     7     3    21    1
     8    21    22    1
     9    22    23   ar
    10    23    24   ar
    11    24    25   ar
    12    25    28    1
    13    28    29    1
    14    28    30    1
    15    28    31    1
    16    25    26   ar
    17    26    27   ar
    18     3     4    1
    19     4     5   ar
    20     5     6   ar
    21     6     7    1
    22     6     8   ar
    23     8     9   ar
    24     9    11    1
    25    11    12   ar
    26    12    13   ar
    27    13    14   ar
    28    14    15   ar
    29     9    10   ar
    30    27    22   ar
    31    10     4   ar
    32    15    11   ar
    33    15    16    1
@<TRIPOS>MOLECULE
*****
 31 33 0 0 0
SMALL
GASTEIGER

@<TRIPOS>ATOM
      1 C          63.0364   86.2655   12.9276 C.2     1  UNL1        0.2296
      2 O          62.5375   84.8526   12.9960 O.2     1  UNL1       -0.2745
      3 N          62.3490   87.2615   12.0412 N.am    1  UNL1       -0.2543
      4 C          62.8480   88.6745   11.9728 C.ar    1  UNL1        0.0565
      5 C          62.7453   89.4448   10.6898 C.ar    1  UNL1        0.0445
      6 C          63.2442   90.8577   10.6215 C.ar    1  UNL1        0.1415
      7 F          63.1416   91.6281    9.3385 F       1  UNL1       -0.2041
      8 C          63.8458   91.5003   11.8361 C.ar    1  UNL1        0.0328
      9 C          63.9484   90.7300   13.1190 C.ar    1  UNL1        0.0406
     10 C          63.4495   89.3171   13.1874 C.ar    1  UNL1        0.0181
     11 C          64.5500   91.3726   14.3336 C.ar    1  UNL1        0.1807
     12 N          63.8563   91.6050   15.6431 N.ar    1  UNL1       -0.1083
     13 N          64.8284   92.2716   16.5708 N.ar    1  UNL1       -0.0229
     14 N          66.1229   92.4512   15.8346 N.ar    1  UNL1       -0.0464
     15 N          65.9508   91.8956   14.4520 N.ar    1  UNL1       -0.2388
     16 H          66.6369   91.8774   13.7461 H       1  UNL1        0.1923
     17 C          64.2226   86.6826   13.7455 C.3     1  UNL1        0.0856
     18 C          64.6221   85.8823   14.9496 C.3     1  UNL1        0.0096
     19 C          63.1406   86.8674   16.8429 C.3     1  UNL1        0.0000
     20 C          63.6500   85.6841   16.0747 C.3     1  UNL1        0.0005
     21 C          61.1628   86.8445   11.2233 C.3     1  UNL1        0.1247
     22 C          61.3636   86.2336    9.8681 C.ar    1  UNL1       -0.0020
     23 C          60.2754   86.3169    8.8392 C.ar    1  UNL1       -0.0027
     24 C          60.4762   85.7059    7.4841 C.ar    1  UNL1        0.0036
     25 C          61.7652   85.0116    7.1579 C.ar    1  UNL1        0.0714
     26 C          62.8534   84.9283    8.1869 C.ar    1  UNL1        0.0036
     27 C          62.6526   85.5393    9.5420 C.ar    1  UNL1       -0.0027
     28 C          61.9659   84.4006    5.8027 C.3     1  UNL1        0.4186
     29 F          62.1667   83.7897    4.4476 F       1  UNL1       -0.1659
     30 F          60.5144   84.0256    5.7567 F       1  UNL1       -0.1659
     31 F          63.4175   84.7757    5.8487 F       1  UNL1       -0.1659
@<TRIPOS>BOND
     1    19    20    1
     2    20    18    1
     3    18    17    1
     4    17     1    1
     5     1     2    2
     6     1     3   am
     7     3    21    1
     8    21    22    1
     9    22    23   ar
    10    23    24   ar
    11    24    25   ar
    12    25    28    1
    13    28    29    1
    14    28    30    1
    15    28    31    1
    16    25    26   ar
    17    26    27   ar
    18     3     4    1
    19     4     5   ar
    20     5     6   ar
    21     6     7    1
    22     6     8   ar
    23     8     9   ar
    24     9    11    1
    25    11    12   ar
    26    12    13   ar
    27    13    14   ar
    28    14    15   ar
    29     9    10   ar
    30    27    22   ar
    31    10     4   ar
    32    15    11   ar
    33    15    16    1
@<TRIPOS>MOLECULE
*****
 31 33 0 0 0
SMALL
GASTEIGER

@<TRIPOS>ATOM
      1 C          62.7389   90.0062   14.3132 C.2     1  UNL1        0.2296
      2 O          61.3243   89.5075   14.3299 O.2     1  UNL1       -0.2745
      3 N          63.2444   90.7887   13.1376 N.am    1  UNL1       -0.2543
      4 C          64.6591   91.2874   13.1209 C.ar    1  UNL1        0.0565
      5 C          65.5584   91.0315   14.2938 C.ar    1  UNL1        0.0445
      6 C          66.9729   91.5302   14.2771 C.ar    1  UNL1        0.1415
      7 F          67.8723   91.2744   15.4501 F       1  UNL1       -0.2041
      8 C          67.4882   92.2848   13.0875 C.ar    1  UNL1        0.0328
      9 C          66.5889   92.5406   11.9146 C.ar    1  UNL1        0.0406
     10 C          65.1743   92.0419   11.9313 C.ar    1  UNL1        0.0181
     11 C          67.1041   93.2952   10.7250 C.ar    1  UNL1        0.1807
     12 N          67.7337   92.6930    9.5039 N.ar    1  UNL1       -0.1083
     13 N          68.0989   93.8100    8.5718 N.ar    1  UNL1       -0.0229
     14 N          67.6951   95.1027    9.2168 N.ar    1  UNL1       -0.0464
     15 N          67.0803   94.7845   10.5476 N.ar    1  UNL1       -0.2388
     16 H          66.7238   95.4383   11.1914 H       1  UNL1        0.1923
     17 C          63.6480   89.7224   15.4721 C.3     1  UNL1        0.0856
     18 C          63.1148   89.0304   16.6915 C.3     1  UNL1        0.0096
     19 C          62.6886   86.8452   18.0307 C.3     1  UNL1        0.0000
     20 C          63.1542   87.5336   16.7819 C.3     1  UNL1        0.0005
     21 C          62.3355   91.0725   11.9786 C.3     1  UNL1        0.1247
     22 C          61.8709   89.9509   11.0975 C.ar    1  UNL1       -0.0020
     23 C          62.5853   88.6322   11.1227 C.ar    1  UNL1       -0.0027
     24 C          62.1208   87.5107   10.2416 C.ar    1  UNL1        0.0036
     25 C          60.9419   87.7078    9.3354 C.ar    1  UNL1        0.0714
     26 C          60.2275   89.0265    9.3102 C.ar    1  UNL1        0.0036
     27 C          60.6920   90.1480   10.1913 C.ar    1  UNL1       -0.0027
     28 C          60.4773   86.5862    8.4543 C.3     1  UNL1        0.4186
     29 F          60.0129   85.4646    7.5732 F       1  UNL1       -0.1659
     30 F          59.0645   87.0747    8.5773 F       1  UNL1       -0.1659
     31 F          61.8902   86.0977    8.3313 F       1  UNL1       -0.1659
@<TRIPOS>BOND
     1    19    20    1
     2    20    18    1
     3    18    17    1
     4    17     1    1
     5     1     2    2
     6     1     3   am
     7     3    21    1
     8    21    22    1
     9    22    23   ar
    10    23    24   ar
    11    24    25   ar
    12    25    28    1
    13    28    29    1
    14    28    30    1
    15    28    31    1
    16    25    26   ar
    17    26    27   ar
    18     3     4    1
    19     4     5   ar
    20     5     6   ar
    21     6     7    1
    22     6     8   ar
    23     8     9   ar
    24     9    11    1
    25    11    12   ar
    26    12    13   ar
    27    13    14   ar
    28    14    15   ar
    29     9    10   ar
    30    27    22   ar
    31    10     4   ar
    32    15    11   ar
    33    15    16    1
