@<TRIPOS>MOLECULE
*****
 40 43 0 0 0
SMALL
GASTEIGER

@<TRIPOS>ATOM
      1 C          64.4784   90.7190   14.5726 C.3     1  UNL1        0.0622
      2 C          64.8956   91.1228   15.9556 C.3     1  UNL1        0.0219
      3 C          65.8656   92.2508   16.1471 C.3     1  UNL1        0.0680
      4 C          66.4184   92.9750   14.9556 C.3     1  UNL1        0.2640
      5 F          67.2118   93.9581   14.1468 F       1  UNL1       -0.2043
      6 F          67.1111   93.7202   16.0577 F       1  UNL1       -0.2043
      7 C          66.0012   92.5713   13.5725 C.3     1  UNL1        0.0680
      8 C          65.0312   91.4432   13.3809 C.3     1  UNL1        0.0219
      9 N          63.7857   89.9738   13.4703 N.3     1  UNL1       -0.2712
     10 C          62.8130   90.6872   12.5787 C.3     1  UNL1        0.0915
     11 C          62.1202   89.9420   11.4765 C.3     1  UNL1        0.1132
     12 N          62.4002   88.4835   11.2659 N.3     1  UNL1       -0.1512
     13 C          63.3729   87.7701   12.1576 C.3     1  UNL1        0.1132
     14 C          64.0656   88.5153   13.2597 C.3     1  UNL1        0.0915
     15 S          61.7075   87.7383   10.1637 S.O2    1  UNL1        0.0833
     16 O          61.2093   89.0358    9.5996 O.2     1  UNL1       -0.1512
     17 O          62.2057   86.4408   10.7279 O.2     1  UNL1       -0.1512
     18 C          61.0148   86.9931    9.0615 C.ar    1  UNL1        0.2440
     19 C          61.6246   85.9291    8.1978 C.ar    1  UNL1        0.1380
     20 N          60.5774   85.4595    7.2320 N.ar    1  UNL1       -0.2267
     21 C          60.7559   84.4017    6.1835 C.3     1  UNL1        0.1556
     22 N          59.3203   86.2332    7.4988 N.ar    1  UNL1       -0.0624
     23 N          59.5906   87.1810    8.6295 N.ar    1  UNL1       -0.1084
     24 C          62.9754   90.1865   16.6238 C.3     1  UNL1        0.0226
     25 C          63.6851   89.7360   15.3813 C.3     1  UNL1        0.0852
     26 N          63.6013   88.3025   14.9478 N.am    1  UNL1       -0.3012
     27 C          63.3653   87.2243   15.9635 C.2     1  UNL1        0.2467
     28 O          63.2131   87.5796   17.4128 O.2     1  UNL1       -0.2701
     29 H          63.7012   88.0693   13.9965 H       1  UNL1        0.1497
     30 C          63.2815   85.7907   15.5299 C.ar    1  UNL1        0.0639
     31 C          61.9917   85.0384   15.6720 C.ar    1  UNL1        0.0053
     32 C          61.9079   83.6049   15.2384 C.ar    1  UNL1        0.0041
     33 C          63.1140   82.9237   14.6628 C.ar    1  UNL1        0.0723
     34 C          64.4039   83.6760   14.5208 C.ar    1  UNL1        0.0154
     35 C          64.4876   85.1095   14.9543 C.ar    1  UNL1        0.0620
     36 CL         65.7775   85.8620   14.8123 Cl      1  UNL1       -0.0821
     37 C          63.0302   81.4901   14.2293 C.3     1  UNL1        0.4186
     38 F          62.9464   80.0566   13.7957 F       1  UNL1       -0.1659
     39 F          64.4577   81.5450   13.7717 F       1  UNL1       -0.1659
     40 F          61.6028   81.4352   14.6868 F       1  UNL1       -0.1659
@<TRIPOS>BOND
     1    24    25    1
     2    25    26    1
     3    26    27   am
     4    27    28    2
     5    27    30    1
     6    30    31   ar
     7    31    32   ar
     8    32    33   ar
     9    33    37    1
    10    37    38    1
    11    37    39    1
    12    37    40    1
    13    33    34   ar
    14    34    35   ar
    15    35    36    1
    16    25     1    1
    17     1     9    1
    18     9    10    1
    19    10    11    1
    20    11    12    1
    21    12    15    1
    22    15    16    2
    23    15    17    2
    24    15    18    1
    25    18    19   ar
    26    19    20   ar
    27    20    21    1
    28    20    22   ar
    29    22    23   ar
    30    12    13    1
    31    13    14    1
    32     1     2    1
    33     2     3    1
    34     3     4    1
    35     4     5    1
    36     4     6    1
    37     4     7    1
    38     7     8    1
    39    35    30   ar
    40     8     1    1
    41    14     9    1
    42    23    18   ar
    43    26    29    1
@<TRIPOS>MOLECULE
*****
 40 43 0 0 0
SMALL
GASTEIGER

@<TRIPOS>ATOM
      1 C          62.9151   83.3389   12.5801 C.3     1  UNL1        0.0622
      2 C          62.7184   82.1780   11.6508 C.3     1  UNL1        0.0219
      3 C          62.2510   80.8579   12.1884 C.3     1  UNL1        0.0680
      4 C          61.9803   80.6988   13.6551 C.3     1  UNL1        0.2640
      5 F          61.5948   80.0593   14.9561 F       1  UNL1       -0.2043
      6 F          61.6497   79.3158   13.1777 F       1  UNL1       -0.2043
      7 C          62.1770   81.8597   14.5844 C.3     1  UNL1        0.0680
      8 C          62.6444   83.1798   14.0469 C.3     1  UNL1        0.0219
      9 N          63.2457   84.7220   13.0576 N.3     1  UNL1       -0.2712
     10 C          64.1313   84.9108   14.2534 C.3     1  UNL1        0.0915
     11 C          64.4619   86.2939   14.7309 C.3     1  UNL1        0.1132
     12 N          63.9070   87.4880   14.0125 N.3     1  UNL1       -0.1512
     13 C          63.0214   87.2991   12.8166 C.3     1  UNL1        0.1132
     14 C          62.6908   85.9161   12.3392 C.3     1  UNL1        0.0915
     15 S          64.2376   88.8710   14.4899 S.O2    1  UNL1        0.0833
     16 O          64.2825   89.3506   13.0694 O.2     1  UNL1       -0.1512
     17 O          64.1926   88.3914   15.9104 O.2     1  UNL1       -0.1512
     18 C          64.5682   90.2541   14.9673 C.ar    1  UNL1        0.2440
     19 C          65.7687   91.0605   14.5696 C.ar    1  UNL1        0.1380
     20 N          65.6988   92.3783   15.2828 N.ar    1  UNL1       -0.2267
     21 C          66.6974   93.4926   15.1762 C.3     1  UNL1        0.1556
     22 N          64.4551   92.3863   16.1212 N.ar    1  UNL1       -0.0624
     23 N          63.7562   91.0734   15.9262 N.ar    1  UNL1       -0.1084
     24 C          64.5787   83.5847   10.5997 C.3     1  UNL1        0.0226
     25 C          63.3006   83.9784   11.2792 C.3     1  UNL1        0.0852
     26 N          62.4081   85.0114   10.6577 N.am    1  UNL1       -0.3012
     27 C          62.4643   85.2596    9.1795 C.2     1  UNL1        0.2467
     28 O          63.4130   84.4747    8.3227 O.2     1  UNL1       -0.2701
     29 H          61.7855   85.5265   11.2201 H       1  UNL1        0.1497
     30 C          61.5718   86.2927    8.5580 C.ar    1  UNL1        0.0639
     31 C          61.4623   87.6567    9.1723 C.ar    1  UNL1        0.0053
     32 C          60.5698   88.6897    8.5508 C.ar    1  UNL1        0.0041
     33 C          59.7868   88.3587    7.3149 C.ar    1  UNL1        0.0723
     34 C          59.8963   86.9947    6.7006 C.ar    1  UNL1        0.0154
     35 C          60.7888   85.9617    7.3221 C.ar    1  UNL1        0.0620
     36 CL         60.8983   84.5976    6.7077 Cl      1  UNL1       -0.0821
     37 C          58.8943   89.3917    6.6934 C.3     1  UNL1        0.4186
     38 F          58.0018   90.4247    6.0719 F       1  UNL1       -0.1659
     39 F          60.0966   90.0978    6.1404 F       1  UNL1       -0.1659
     40 F          57.6920   88.6856    7.2464 F       1  UNL1       -0.1659
@<TRIPOS>BOND
     1    24    25    1
     2    25    26    1
     3    26    27   am
     4    27    28    2
     5    27    30    1
     6    30    31   ar
     7    31    32   ar
     8    32    33   ar
     9    33    37    1
    10    37    38    1
    11    37    39    1
    12    37    40    1
    13    33    34   ar
    14    34    35   ar
    15    35    36    1
    16    25     1    1
    17     1     9    1
    18     9    10    1
    19    10    11    1
    20    11    12    1
    21    12    15    1
    22    15    16    2
    23    15    17    2
    24    15    18    1
    25    18    19   ar
    26    19    20   ar
    27    20    21    1
    28    20    22   ar
    29    22    23   ar
    30    12    13    1
    31    13    14    1
    32     1     2    1
    33     2     3    1
    34     3     4    1
    35     4     5    1
    36     4     6    1
    37     4     7    1
    38     7     8    1
    39    35    30   ar
    40     8     1    1
    41    14     9    1
    42    23    18   ar
    43    26    29    1
@<TRIPOS>MOLECULE
*****
 40 43 0 0 0
SMALL
GASTEIGER

@<TRIPOS>ATOM
      1 C          64.7590   90.9847   14.1308 C.3     1  UNL1        0.0622
      2 C          65.4967   90.8866   15.4331 C.3     1  UNL1        0.0219
      3 C          66.4943   91.9410   15.8112 C.3     1  UNL1        0.0680
      4 C          66.7541   93.0935   14.8870 C.3     1  UNL1        0.2640
      5 F          67.3410   94.3654   14.3503 F       1  UNL1       -0.2043
      6 F          67.6957   93.4372   16.0029 F       1  UNL1       -0.2043
      7 C          66.0164   93.1916   13.5846 C.3     1  UNL1        0.0680
      8 C          65.0188   92.1372   13.2065 C.3     1  UNL1        0.0219
      9 N          63.8174   90.6410   13.0148 N.3     1  UNL1       -0.2712
     10 C          64.2389   90.8418   11.5893 C.3     1  UNL1        0.0915
     11 C          63.2973   90.4981   10.4733 C.3     1  UNL1        0.1132
     12 N          61.9343   89.9537   10.7828 N.3     1  UNL1       -0.1512
     13 C          61.5128   89.7530   12.2084 C.3     1  UNL1        0.1132
     14 C          62.4544   90.0967   13.3243 C.3     1  UNL1        0.0915
     15 S          60.9927   89.6101    9.6669 S.O2    1  UNL1        0.0833
     16 O          60.1394   90.7911   10.0232 O.2     1  UNL1       -0.1512
     17 O          61.8461   88.4291    9.3105 O.2     1  UNL1       -0.1512
     18 C          60.0512   89.2664    8.5509 C.ar    1  UNL1        0.2440
     19 C          59.5966   90.1944    7.4637 C.ar    1  UNL1        0.1380
     20 N          58.6634   89.4360    6.5671 N.ar    1  UNL1       -0.2267
     21 C          57.9734   89.9790    5.3509 C.3     1  UNL1        0.1556
     22 N          58.5411   88.0393    7.1002 N.ar    1  UNL1       -0.0624
     23 N          59.3988   87.9345    8.3263 N.ar    1  UNL1       -0.1084
     24 C          63.6549   89.6607   16.0745 C.3     1  UNL1        0.0226
     25 C          64.1721   89.7128   14.6675 C.3     1  UNL1        0.0852
     26 N          64.1025   88.4932   13.7971 N.am    1  UNL1       -0.3012
     27 C          63.8049   87.1544   14.4045 C.2     1  UNL1        0.2467
     28 O          63.5769   87.0353   15.8823 O.2     1  UNL1       -0.2701
     29 H          64.2522   88.5714   12.8272 H       1  UNL1        0.1497
     30 C          63.7353   85.9346   13.5342 C.ar    1  UNL1        0.0639
     31 C          62.7426   85.8700   12.4115 C.ar    1  UNL1        0.0053
     32 C          62.6730   84.6503   11.5413 C.ar    1  UNL1        0.0041
     33 C          63.5961   83.4952   11.7936 C.ar    1  UNL1        0.0723
     34 C          64.5887   83.5598   12.9163 C.ar    1  UNL1        0.0154
     35 C          64.6583   84.7795   13.7865 C.ar    1  UNL1        0.0620
     36 CL         65.6510   84.8442   14.9093 Cl      1  UNL1       -0.0821
     37 C          63.5264   82.2755   10.9233 C.3     1  UNL1        0.4186
     38 F          63.4568   81.0558   10.0530 F       1  UNL1       -0.1659
     39 F          64.5854   82.8517   10.0309 F       1  UNL1       -0.1659
     40 F          62.4674   81.6992   11.8156 F       1  UNL1       -0.1659
@<TRIPOS>BOND
     1    24    25    1
     2    25    26    1
     3    26    27   am
     4    27    28    2
     5    27    30    1
     6    30    31   ar
     7    31    32   ar
     8    32    33   ar
     9    33    37    1
    10    37    38    1
    11    37    39    1
    12    37    40    1
    13    33    34   ar
    14    34    35   ar
    15    35    36    1
    16    25     1    1
    17     1     9    1
    18     9    10    1
    19    10    11    1
    20    11    12    1
    21    12    15    1
    22    15    16    2
    23    15    17    2
    24    15    18    1
    25    18    19   ar
    26    19    20   ar
    27    20    21    1
    28    20    22   ar
    29    22    23   ar
    30    12    13    1
    31    13    14    1
    32     1     2    1
    33     2     3    1
    34     3     4    1
    35     4     5    1
    36     4     6    1
    37     4     7    1
    38     7     8    1
    39    35    30   ar
    40     8     1    1
    41    14     9    1
    42    23    18   ar
    43    26    29    1
@<TRIPOS>MOLECULE
*****
 40 43 0 0 0
SMALL
GASTEIGER

@<TRIPOS>ATOM
      1 C          62.2819   86.1370   10.8299 C.3     1  UNL1        0.0622
      2 C          62.7899   85.6525   12.1555 C.3     1  UNL1        0.0219
      3 C          63.4706   84.3196   12.2560 C.3     1  UNL1        0.0680
      4 C          63.6435   83.4714   11.0310 C.3     1  UNL1        0.2640
      5 F          64.0406   82.3154   10.1616 F       1  UNL1       -0.2043
      6 F          64.2894   82.5854   12.0546 F       1  UNL1       -0.2043
      7 C          63.1355   83.9559    9.7055 C.3     1  UNL1        0.0680
      8 C          62.4547   85.2888    9.6049 C.3     1  UNL1        0.0219
      9 N          61.6360   87.0231    9.8062 N.3     1  UNL1       -0.2712
     10 C          62.0478   88.4609    9.6920 C.3     1  UNL1        0.0915
     11 C          61.4018   89.3470    8.6683 C.3     1  UNL1        0.1132
     12 N          60.3442   88.7952    7.7590 N.3     1  UNL1       -0.1512
     13 C          59.9325   87.3573    7.8733 C.3     1  UNL1        0.1132
     14 C          60.5784   86.4713    8.8969 C.3     1  UNL1        0.0915
     15 S          59.6983   89.6812    6.7354 S.O2    1  UNL1        0.0833
     16 O          60.9683   90.4706    6.6173 O.2     1  UNL1       -0.1512
     17 O          58.4283   88.8918    6.8535 O.2     1  UNL1       -0.1512
     18 C          59.0524   90.5672    5.7118 C.ar    1  UNL1        0.2440
     19 C          59.7544   91.2812    4.5950 C.ar    1  UNL1        0.1380
     20 N          58.7270   92.0500    3.8182 N.ar    1  UNL1       -0.2267
     21 C          58.9904   92.9072    2.6158 C.3     1  UNL1        0.1556
     22 N          57.3901   91.8112    4.4550 N.ar    1  UNL1       -0.0624
     23 N          57.5912   90.8948    5.6253 N.ar    1  UNL1       -0.1084
     24 C          60.4340   87.5730   11.9582 C.3     1  UNL1        0.0226
     25 C          61.8848   87.2930   11.6994 C.3     1  UNL1        0.0852
     26 N          62.9383   88.1688   12.3100 N.am    1  UNL1       -0.3012
     27 C          62.6580   89.6226   12.5505 C.2     1  UNL1        0.2467
     28 O          61.3243   90.2006   12.1803 O.2     1  UNL1       -0.2701
     29 H          63.8137   87.7895   12.5529 H       1  UNL1        0.1497
     30 C          63.7116   90.4986   13.1611 C.ar    1  UNL1        0.0639
     31 C          64.0362   90.3753   14.6203 C.ar    1  UNL1        0.0053
     32 C          65.0897   91.2512   15.2309 C.ar    1  UNL1        0.0041
     33 C          65.8186   92.2504   14.3822 C.ar    1  UNL1        0.0723
     34 C          65.4941   92.3737   12.9230 C.ar    1  UNL1        0.0154
     35 C          64.4405   91.4978   12.3124 C.ar    1  UNL1        0.0620
     36 CL         64.1159   91.6210   10.8531 Cl      1  UNL1       -0.0821
     37 C          66.8722   93.1264   14.9929 C.3     1  UNL1        0.4186
     38 F          67.9257   94.0023   15.6034 F       1  UNL1       -0.1659
     39 F          67.2552   92.0157   15.9254 F       1  UNL1       -0.1659
     40 F          66.4891   94.2371   14.0604 F       1  UNL1       -0.1659
@<TRIPOS>BOND
     1    24    25    1
     2    25    26    1
     3    26    27   am
     4    27    28    2
     5    27    30    1
     6    30    31   ar
     7    31    32   ar
     8    32    33   ar
     9    33    37    1
    10    37    38    1
    11    37    39    1
    12    37    40    1
    13    33    34   ar
    14    34    35   ar
    15    35    36    1
    16    25     1    1
    17     1     9    1
    18     9    10    1
    19    10    11    1
    20    11    12    1
    21    12    15    1
    22    15    16    2
    23    15    17    2
    24    15    18    1
    25    18    19   ar
    26    19    20   ar
    27    20    21    1
    28    20    22   ar
    29    22    23   ar
    30    12    13    1
    31    13    14    1
    32     1     2    1
    33     2     3    1
    34     3     4    1
    35     4     5    1
    36     4     6    1
    37     4     7    1
    38     7     8    1
    39    35    30   ar
    40     8     1    1
    41    14     9    1
    42    23    18   ar
    43    26    29    1
@<TRIPOS>MOLECULE
*****
 40 43 0 0 0
SMALL
GASTEIGER

@<TRIPOS>ATOM
      1 C          62.5429   85.8682   10.9312 C.3     1  UNL1        0.0622
      2 C          63.1398   85.3782   12.2171 C.3     1  UNL1        0.0219
      3 C          63.8970   84.0837   12.2471 C.3     1  UNL1        0.0680
      4 C          64.0574   83.2794   10.9912 C.3     1  UNL1        0.2640
      5 F          64.4755   82.1711   10.0709 F       1  UNL1       -0.2043
      6 F          64.7995   82.4044   11.9575 F       1  UNL1       -0.2043
      7 C          63.4605   83.7694    9.7053 C.3     1  UNL1        0.0680
      8 C          62.7032   85.0639    9.6753 C.3     1  UNL1        0.0219
      9 N          61.8008   86.7433    9.9649 N.3     1  UNL1       -0.2712
     10 C          60.7261   86.1588    9.0968 C.3     1  UNL1        0.0915
     11 C          59.9840   87.0339    8.1305 C.3     1  UNL1        0.1132
     12 N          60.3166   88.4932    8.0323 N.3     1  UNL1       -0.1512
     13 C          61.3913   89.0776    8.9004 C.3     1  UNL1        0.1132
     14 C          62.1333   88.2026    9.8667 C.3     1  UNL1        0.0915
     15 S          59.5745   89.3682    7.0660 S.O2    1  UNL1        0.0833
     16 O          58.4068   88.4277    7.1111 O.2     1  UNL1       -0.1512
     17 O          60.7421   90.3087    7.0210 O.2     1  UNL1       -0.1512
     18 C          58.8324   90.2432    6.0998 C.ar    1  UNL1        0.2440
     19 C          57.3416   90.3550    5.9773 C.ar    1  UNL1        0.1380
     20 N          57.0386   91.3409    4.8882 N.ar    1  UNL1       -0.2267
     21 C          55.6720   91.7563    4.4302 C.3     1  UNL1        0.1556
     22 N          58.3421   91.8384    4.3375 N.ar    1  UNL1       -0.0624
     23 N          59.4508   91.1600    5.0863 N.ar    1  UNL1       -0.1084
     24 C          60.6822   87.1311   12.2323 C.3     1  UNL1        0.0226
     25 C          62.1248   86.9765   11.8515 C.3     1  UNL1        0.0852
     26 N          63.1493   87.9301   12.3910 N.am    1  UNL1       -0.3012
     27 C          62.7453   89.3189   12.7884 C.2     1  UNL1        0.2467
     28 O          61.3169   89.7541   12.6463 O.2     1  UNL1       -0.2701
     29 H          64.0868   87.6444   12.4843 H       1  UNL1        0.1497
     30 C          63.7698   90.2726   13.3279 C.ar    1  UNL1        0.0639
     31 C          64.4241   91.2662   12.4144 C.ar    1  UNL1        0.0053
     32 C          65.4485   92.2198   12.9540 C.ar    1  UNL1        0.0041
     33 C          65.8186   92.1798   14.4070 C.ar    1  UNL1        0.0723
     34 C          65.1643   91.1862   15.3206 C.ar    1  UNL1        0.0154
     35 C          64.1399   90.2326   14.7810 C.ar    1  UNL1        0.0620
     36 CL         63.4855   89.2389   15.6945 Cl      1  UNL1       -0.0821
     37 C          66.8431   93.1335   14.9466 C.3     1  UNL1        0.4186
     38 F          67.8675   94.0871   15.4861 F       1  UNL1       -0.1659
     39 F          66.4521   94.1416   13.9070 F       1  UNL1       -0.1659
     40 F          67.2340   92.1253   15.9861 F       1  UNL1       -0.1659
@<TRIPOS>BOND
     1    24    25    1
     2    25    26    1
     3    26    27   am
     4    27    28    2
     5    27    30    1
     6    30    31   ar
     7    31    32   ar
     8    32    33   ar
     9    33    37    1
    10    37    38    1
    11    37    39    1
    12    37    40    1
    13    33    34   ar
    14    34    35   ar
    15    35    36    1
    16    25     1    1
    17     1     9    1
    18     9    10    1
    19    10    11    1
    20    11    12    1
    21    12    15    1
    22    15    16    2
    23    15    17    2
    24    15    18    1
    25    18    19   ar
    26    19    20   ar
    27    20    21    1
    28    20    22   ar
    29    22    23   ar
    30    12    13    1
    31    13    14    1
    32     1     2    1
    33     2     3    1
    34     3     4    1
    35     4     5    1
    36     4     6    1
    37     4     7    1
    38     7     8    1
    39    35    30   ar
    40     8     1    1
    41    14     9    1
    42    23    18   ar
    43    26    29    1
@<TRIPOS>MOLECULE
*****
 40 43 0 0 0
SMALL
GASTEIGER

@<TRIPOS>ATOM
      1 C          62.8994   94.3287   -2.7174 C.3     1  UNL1        0.0622
      2 C          63.2422   95.2388   -3.8594 C.3     1  UNL1        0.0219
      3 C          64.1421   94.7568   -4.9583 C.3     1  UNL1        0.0680
      4 C          64.6993   93.3648   -4.9153 C.3     1  UNL1        0.2640
      5 F          65.4683   92.1413   -5.3173 F       1  UNL1       -0.2043
      6 F          65.3092   93.8499   -6.1969 F       1  UNL1       -0.2043
      7 C          64.3565   92.4547   -3.7732 C.3     1  UNL1        0.0680
      8 C          63.4565   92.9367   -2.6742 C.3     1  UNL1        0.0219
      9 N          62.2894   93.8436   -1.4356 N.3     1  UNL1       -0.2712
     10 C          62.9090   94.2172   -0.1217 C.3     1  UNL1        0.0915
     11 C          62.2991   93.7321    1.1601 C.3     1  UNL1        0.1132
     12 N          61.0697   92.8734    1.1277 N.3     1  UNL1       -0.1512
     13 C          60.4501   92.4997   -0.1863 C.3     1  UNL1        0.1132
     14 C          61.0600   92.9849   -1.4679 C.3     1  UNL1        0.0915
     15 S          60.4598   92.3882    2.4094 S.O2    1  UNL1        0.0833
     16 O          59.0902   92.6504    1.8569 O.2     1  UNL1       -0.1512
     17 O          61.8295   92.1261    2.9619 O.2     1  UNL1       -0.1512
     18 C          59.8499   91.9031    3.6911 C.ar    1  UNL1        0.2440
     19 C          60.4362   90.8751    4.6127 C.ar    1  UNL1        0.1380
     20 N          59.4953   90.6974    5.7674 N.ar    1  UNL1       -0.2267
     21 C          59.6883   89.7652    6.9266 C.3     1  UNL1        0.1556
     22 N          58.3276   91.6156    5.5593 N.ar    1  UNL1       -0.0624
     23 N          58.5467   92.3608    4.2761 N.ar    1  UNL1       -0.1084
     24 C          62.8456   96.8556   -2.1156 C.3     1  UNL1        0.0226
     25 C          62.1304   95.5523   -2.3153 C.3     1  UNL1        0.0852
     26 N          60.6463   95.4725   -2.1130 N.am    1  UNL1       -0.3012
     27 C          59.7162   95.9748   -3.1772 C.2     1  UNL1        0.2467
     28 O          60.2703   96.5568   -4.4438 O.2     1  UNL1       -0.2701
     29 H          60.2826   95.0905   -1.2817 H       1  UNL1        0.1497
     30 C          58.2320   95.8950   -2.9749 C.ar    1  UNL1        0.0639
     31 C          57.5822   96.6776   -1.8725 C.ar    1  UNL1        0.0053
     32 C          56.0981   96.5978   -1.6703 C.ar    1  UNL1        0.0041
     33 C          55.2637   95.7354   -2.5704 C.ar    1  UNL1        0.0723
     34 C          55.9135   94.9529   -3.6728 C.ar    1  UNL1        0.0154
     35 C          57.3977   95.0327   -3.8750 C.ar    1  UNL1        0.0620
     36 CL         58.0475   94.2500   -4.9775 Cl      1  UNL1       -0.0821
     37 C          53.7795   95.6557   -2.3681 C.3     1  UNL1        0.4186
     38 F          52.2954   95.5759   -2.1658 F       1  UNL1       -0.1659
     39 F          53.5735   95.7250   -3.8522 F       1  UNL1       -0.1659
     40 F          53.9856   95.5864   -0.8840 F       1  UNL1       -0.1659
@<TRIPOS>BOND
     1    24    25    1
     2    25    26    1
     3    26    27   am
     4    27    28    2
     5    27    30    1
     6    30    31   ar
     7    31    32   ar
     8    32    33   ar
     9    33    37    1
    10    37    38    1
    11    37    39    1
    12    37    40    1
    13    33    34   ar
    14    34    35   ar
    15    35    36    1
    16    25     1    1
    17     1     9    1
    18     9    10    1
    19    10    11    1
    20    11    12    1
    21    12    15    1
    22    15    16    2
    23    15    17    2
    24    15    18    1
    25    18    19   ar
    26    19    20   ar
    27    20    21    1
    28    20    22   ar
    29    22    23   ar
    30    12    13    1
    31    13    14    1
    32     1     2    1
    33     2     3    1
    34     3     4    1
    35     4     5    1
    36     4     6    1
    37     4     7    1
    38     7     8    1
    39    35    30   ar
    40     8     1    1
    41    14     9    1
    42    23    18   ar
    43    26    29    1
@<TRIPOS>MOLECULE
*****
 40 43 0 0 0
SMALL
GASTEIGER

@<TRIPOS>ATOM
      1 C          60.9854   88.2473   10.1922 C.3     1  UNL1        0.0622
      2 C          60.0517   87.1806    9.7017 C.3     1  UNL1        0.0219
      3 C          59.3744   87.3305    8.3718 C.3     1  UNL1        0.0680
      4 C          59.6306   88.5468    7.5324 C.3     1  UNL1        0.2640
      5 F          59.5533   89.5088    6.3841 F       1  UNL1       -0.2043
      6 F          58.6701   87.8143    6.6431 F       1  UNL1       -0.2043
      7 C          60.5643   89.6135    8.0228 C.3     1  UNL1        0.0680
      8 C          61.2417   89.4637    9.3528 C.3     1  UNL1        0.0219
      9 N          61.9460   88.9798   11.0815 N.3     1  UNL1       -0.2712
     10 C          61.9399   90.4794   11.1178 C.3     1  UNL1        0.0915
     11 C          62.9005   91.2119   12.0071 C.3     1  UNL1        0.1132
     12 N          63.8670   90.4449   12.8600 N.3     1  UNL1       -0.1512
     13 C          63.8731   88.9453   12.8236 C.3     1  UNL1        0.1132
     14 C          62.9125   88.2128   11.9343 C.3     1  UNL1        0.0915
     15 S          64.8276   91.1774   13.7492 S.O2    1  UNL1        0.0833
     16 O          64.7397   92.3784   12.8548 O.2     1  UNL1       -0.1512
     17 O          64.9154   89.9764   14.6436 O.2     1  UNL1       -0.1512
     18 C          65.7881   91.9099   14.6385 C.ar    1  UNL1        0.2440
     19 C          67.2151   92.2386   14.3135 C.ar    1  UNL1        0.1380
     20 N          67.7992   92.9741   15.4830 N.ar    1  UNL1       -0.2267
     21 C          69.2030   93.4927   15.5865 C.3     1  UNL1        0.1556
     22 N          66.7333   93.1001   16.5307 N.ar    1  UNL1       -0.0624
     23 N          65.4903   92.4424   16.0088 N.ar    1  UNL1       -0.1084
     24 C          60.9445   87.7876   12.7490 C.3     1  UNL1        0.0226
     25 C          61.0627   87.2853   11.3405 C.3     1  UNL1        0.0852
     26 N          61.2582   85.8210   11.0803 N.am    1  UNL1       -0.3012
     27 C          62.2506   85.0413   11.8910 C.2     1  UNL1        0.2467
     28 O          63.0474   85.7258   12.9618 O.2     1  UNL1       -0.2701
     29 H          60.7353   85.3718   10.3775 H       1  UNL1        0.1497
     30 C          62.4461   83.5769   11.6309 C.ar    1  UNL1        0.0639
     31 C          61.9717   82.5672   12.6335 C.ar    1  UNL1        0.0053
     32 C          62.1672   81.1030   12.3734 C.ar    1  UNL1        0.0041
     33 C          62.8373   80.6485   11.1106 C.ar    1  UNL1        0.0723
     34 C          63.3117   81.6582   10.1080 C.ar    1  UNL1        0.0154
     35 C          63.1162   83.1225   10.3682 C.ar    1  UNL1        0.0620
     36 CL         63.5906   84.1323    9.3656 Cl      1  UNL1       -0.0821
     37 C          63.0329   79.1841   10.8505 C.3     1  UNL1        0.4186
     38 F          63.2284   77.7199   10.5904 F       1  UNL1       -0.1659
     39 F          62.7694   78.8918   12.2980 F       1  UNL1       -0.1659
     40 F          63.2963   79.4765    9.4031 F       1  UNL1       -0.1659
@<TRIPOS>BOND
     1    24    25    1
     2    25    26    1
     3    26    27   am
     4    27    28    2
     5    27    30    1
     6    30    31   ar
     7    31    32   ar
     8    32    33   ar
     9    33    37    1
    10    37    38    1
    11    37    39    1
    12    37    40    1
    13    33    34   ar
    14    34    35   ar
    15    35    36    1
    16    25     1    1
    17     1     9    1
    18     9    10    1
    19    10    11    1
    20    11    12    1
    21    12    15    1
    22    15    16    2
    23    15    17    2
    24    15    18    1
    25    18    19   ar
    26    19    20   ar
    27    20    21    1
    28    20    22   ar
    29    22    23   ar
    30    12    13    1
    31    13    14    1
    32     1     2    1
    33     2     3    1
    34     3     4    1
    35     4     5    1
    36     4     6    1
    37     4     7    1
    38     7     8    1
    39    35    30   ar
    40     8     1    1
    41    14     9    1
    42    23    18   ar
    43    26    29    1
@<TRIPOS>MOLECULE
*****
 40 43 0 0 0
SMALL
GASTEIGER

@<TRIPOS>ATOM
      1 C          62.0332   95.3968   -1.6192 C.3     1  UNL1        0.0622
      2 C          62.0482   96.2215   -2.8720 C.3     1  UNL1        0.0219
      3 C          63.3533   96.5751   -3.5214 C.3     1  UNL1        0.0680
      4 C          64.6432   96.1040   -2.9180 C.3     1  UNL1        0.2640
      5 F          66.1161   95.8940   -2.7266 F       1  UNL1       -0.2043
      6 F          65.1699   96.8558   -4.1044 F       1  UNL1       -0.2043
      7 C          64.6282   95.2793   -1.6652 C.3     1  UNL1        0.0680
      8 C          63.3231   94.9257   -1.0157 C.3     1  UNL1        0.0219
      9 N          61.5065   94.6450   -0.4327 N.3     1  UNL1       -0.2712
     10 C          61.3776   95.3328    0.8940 C.3     1  UNL1        0.0915
     11 C          60.8509   94.5810    2.0805 C.3     1  UNL1        0.1132
     12 N          60.4532   93.1415    1.9401 N.3     1  UNL1       -0.1512
     13 C          60.5822   92.4538    0.6132 C.3     1  UNL1        0.1132
     14 C          61.1088   93.2056   -0.5731 C.3     1  UNL1        0.0915
     15 S          59.9266   92.3898    3.1264 S.O2    1  UNL1        0.0833
     16 O          58.5277   92.5581    2.6121 O.2     1  UNL1       -0.1512
     17 O          61.3256   92.2215    3.6408 O.2     1  UNL1       -0.1512
     18 C          59.4000   91.6380    4.3128 C.ar    1  UNL1        0.2440
     19 C          60.1752   90.6732    5.1603 C.ar    1  UNL1        0.1380
     20 N          59.2601   90.1580    6.2312 N.ar    1  UNL1       -0.2267
     21 C          59.6222   89.1699    7.3002 C.3     1  UNL1        0.1556
     22 N          57.9192   90.8042    6.0457 N.ar    1  UNL1       -0.0624
     23 N          58.0057   91.7189    4.8600 N.ar    1  UNL1       -0.1084
     24 C          59.8691   96.7451   -1.1200 C.3     1  UNL1        0.0226
     25 C          60.5603   95.6069   -1.8105 C.3     1  UNL1        0.0852
     26 N          59.7787   94.6788   -2.6924 N.am    1  UNL1       -0.3012
     27 C          58.2813   94.7595   -2.7258 C.2     1  UNL1        0.2467
     28 O          57.5655   95.7683   -1.8773 O.2     1  UNL1       -0.2701
     29 H          60.2485   94.0166   -3.2492 H       1  UNL1        0.1497
     30 C          57.4996   93.8314   -3.6076 C.ar    1  UNL1        0.0639
     31 C          57.4822   92.3596   -3.3190 C.ar    1  UNL1        0.0053
     32 C          56.7006   91.4315   -4.2008 C.ar    1  UNL1        0.0041
     33 C          55.9363   91.9753   -5.3714 C.ar    1  UNL1        0.0723
     34 C          55.9537   93.4471   -5.6601 C.ar    1  UNL1        0.0154
     35 C          56.7353   94.3752   -4.7782 C.ar    1  UNL1        0.0620
     36 CL         56.7528   95.8471   -5.0669 Cl      1  UNL1       -0.0821
     37 C          55.1546   91.0472   -6.2533 C.3     1  UNL1        0.4186
     38 F          54.3730   90.1191   -7.1351 F       1  UNL1       -0.1659
     39 F          54.7158   90.2708   -5.0472 F       1  UNL1       -0.1659
     40 F          55.5935   91.8236   -7.4593 F       1  UNL1       -0.1659
@<TRIPOS>BOND
     1    24    25    1
     2    25    26    1
     3    26    27   am
     4    27    28    2
     5    27    30    1
     6    30    31   ar
     7    31    32   ar
     8    32    33   ar
     9    33    37    1
    10    37    38    1
    11    37    39    1
    12    37    40    1
    13    33    34   ar
    14    34    35   ar
    15    35    36    1
    16    25     1    1
    17     1     9    1
    18     9    10    1
    19    10    11    1
    20    11    12    1
    21    12    15    1
    22    15    16    2
    23    15    17    2
    24    15    18    1
    25    18    19   ar
    26    19    20   ar
    27    20    21    1
    28    20    22   ar
    29    22    23   ar
    30    12    13    1
    31    13    14    1
    32     1     2    1
    33     2     3    1
    34     3     4    1
    35     4     5    1
    36     4     6    1
    37     4     7    1
    38     7     8    1
    39    35    30   ar
    40     8     1    1
    41    14     9    1
    42    23    18   ar
    43    26    29    1
@<TRIPOS>MOLECULE
*****
 40 43 0 0 0
SMALL
GASTEIGER

@<TRIPOS>ATOM
      1 C          60.7081   88.9379   10.1108 C.3     1  UNL1        0.0622
      2 C          59.5829   87.9828    9.8434 C.3     1  UNL1        0.0219
      3 C          58.9583   87.9224    8.4810 C.3     1  UNL1        0.0680
      4 C          59.4588   88.8171    7.3861 C.3     1  UNL1        0.2640
      5 F          59.5836   89.4573    6.0353 F       1  UNL1       -0.2043
      6 F          58.3769   88.0843    6.6495 F       1  UNL1       -0.2043
      7 C          60.5840   89.7723    7.6535 C.3     1  UNL1        0.0680
      8 C          61.2087   89.8327    9.0159 C.3     1  UNL1        0.0219
      9 N          61.7901   89.6708   10.8474 N.3     1  UNL1       -0.2712
     10 C          61.8015   89.6814   12.3473 C.3     1  UNL1        0.0915
     11 C          62.8835   90.4142   13.0839 C.3     1  UNL1        0.1132
     12 N          63.9538   91.1364   12.3205 N.3     1  UNL1       -0.1512
     13 C          63.9423   91.1258   10.8206 C.3     1  UNL1        0.1132
     14 C          62.8604   90.3930   10.0841 C.3     1  UNL1        0.0915
     15 S          65.0357   91.8692   13.0571 S.O2    1  UNL1        0.0833
     16 O          64.4315   91.4479   14.3638 O.2     1  UNL1       -0.1512
     17 O          65.6399   92.2906   11.7504 O.2     1  UNL1       -0.1512
     18 C          66.1176   92.6020   13.7936 C.ar    1  UNL1        0.2440
     19 C          67.1684   91.9798   14.6646 C.ar    1  UNL1        0.1380
     20 N          68.0389   93.0789   15.1978 N.ar    1  UNL1       -0.2267
     21 C          69.2156   92.9068   16.1120 C.3     1  UNL1        0.1556
     22 N          67.5261   94.3804   14.6563 N.ar    1  UNL1       -0.0624
     23 N          66.3386   94.0857   13.7885 N.ar    1  UNL1       -0.1084
     24 C          60.2535   89.1357   12.6612 C.3     1  UNL1        0.0226
     25 C          60.5834   88.2977   11.4616 C.3     1  UNL1        0.0852
     26 N          60.7884   86.8195   11.6127 N.am    1  UNL1       -0.3012
     27 C          62.0861   86.2936   12.1508 C.2     1  UNL1        0.2467
     28 O          63.1786   87.2458   12.5376 O.2     1  UNL1       -0.2701
     29 H          60.0714   86.1946   11.3588 H       1  UNL1        0.1497
     30 C          62.2912   84.8154   12.3020 C.ar    1  UNL1        0.0639
     31 C          62.0279   84.1527   13.6217 C.ar    1  UNL1        0.0053
     32 C          62.2330   82.6746   13.7728 C.ar    1  UNL1        0.0041
     33 C          62.7015   81.8590   12.6043 C.ar    1  UNL1        0.0723
     34 C          62.9648   82.5216   11.2847 C.ar    1  UNL1        0.0154
     35 C          62.7597   83.9998   11.1335 C.ar    1  UNL1        0.0620
     36 CL         63.0230   84.6625    9.8138 Cl      1  UNL1       -0.0821
     37 C          62.9066   80.3808   12.7555 C.3     1  UNL1        0.4186
     38 F          63.1118   78.9026   12.9067 F       1  UNL1       -0.1659
     39 F          63.0036   80.5464   14.2432 F       1  UNL1       -0.1659
     40 F          62.8097   80.2152   11.2679 F       1  UNL1       -0.1659
@<TRIPOS>BOND
     1    24    25    1
     2    25    26    1
     3    26    27   am
     4    27    28    2
     5    27    30    1
     6    30    31   ar
     7    31    32   ar
     8    32    33   ar
     9    33    37    1
    10    37    38    1
    11    37    39    1
    12    37    40    1
    13    33    34   ar
    14    34    35   ar
    15    35    36    1
    16    25     1    1
    17     1     9    1
    18     9    10    1
    19    10    11    1
    20    11    12    1
    21    12    15    1
    22    15    16    2
    23    15    17    2
    24    15    18    1
    25    18    19   ar
    26    19    20   ar
    27    20    21    1
    28    20    22   ar
    29    22    23   ar
    30    12    13    1
    31    13    14    1
    32     1     2    1
    33     2     3    1
    34     3     4    1
    35     4     5    1
    36     4     6    1
    37     4     7    1
    38     7     8    1
    39    35    30   ar
    40     8     1    1
    41    14     9    1
    42    23    18   ar
    43    26    29    1
