@<TRIPOS>MOLECULE
*****
 26 27 0 0 0
SMALL
GASTEIGER

@<TRIPOS>ATOM
      1 C          63.5029   90.1870   16.4933 C.3     1  UNL1        0.0527
      2 C          63.4522   90.3010   14.9985 C.ar    1  UNL1        0.0673
      3 N          62.3864   89.7363   14.1069 N.ar    1  UNL1       -0.2283
      4 C          62.7338   90.0860   12.6901 C.ar    1  UNL1        0.1652
      5 S          64.0145   90.8668   12.7063 S.2     1  UNL1       -0.0517
      6 C          64.4585   90.9997   14.1329 C.ar    1  UNL1        0.0471
      7 C          65.6922   91.7071   14.6101 C.ar    1  UNL1        0.0265
      8 C          66.9423   91.6761   13.7817 C.ar    1  UNL1        0.0049
      9 C          68.1759   92.3834   14.2589 C.ar    1  UNL1        0.0339
     10 C          68.1594   93.1219   15.5645 C.ar    1  UNL1        0.1254
     11 N          69.3931   93.8293   16.0417 N.pl3   1  UNL1       -0.3426
     12 N          66.9092   93.1530   16.3928 N.ar    1  UNL1       -0.2296
     13 C          65.6756   92.4456   15.9156 C.ar    1  UNL1        0.1008
     14 H          70.2136   93.8089   15.4980 H       1  UNL1        0.1437
     15 H          69.3822   94.3140   16.8985 H       1  UNL1        0.1437
     16 N          61.9400   89.7192   11.4714 N.am    1  UNL1       -0.2642
     17 C          61.8616   88.2877   11.0301 C.2     1  UNL1        0.2273
     18 O          62.5771   87.2230   11.8077 O.2     1  UNL1       -0.2747
     19 H          61.4705   90.4181   10.9611 H       1  UNL1        0.1567
     20 C          61.0678   87.9210    9.8114 C.3     1  UNL1        0.0853
     21 C          60.5088   88.9972    8.9286 C.3     1  UNL1        0.0099
     22 C          60.8331   86.4781    9.4755 C.3     1  UNL1        0.1124
     23 C          61.3112   85.9257    8.1654 C.3     1  UNL1        0.3982
     24 F          61.7893   85.3733    6.8554 F       1  UNL1       -0.1700
     25 F          59.8912   85.6712    7.7545 F       1  UNL1       -0.1700
     26 F          62.7312   86.1802    8.5763 F       1  UNL1       -0.1700
@<TRIPOS>BOND
     1     1     2    1
     2     2     3   ar
     3     3     4   ar
     4     4    16    1
     5    16    17   am
     6    17    18    2
     7    17    20    1
     8    20    21    1
     9    20    22    1
    10    22    23    1
    11    23    24    1
    12    23    25    1
    13    23    26    1
    14     4     5   ar
    15     5     6   ar
    16     6     7    1
    17     7     8   ar
    18     8     9   ar
    19     9    10   ar
    20    10    11    1
    21    10    12   ar
    22    12    13   ar
    23     6     2   ar
    24    13     7   ar
    25    16    19    1
    26    11    14    1
    27    11    15    1
@<TRIPOS>MOLECULE
*****
 26 27 0 0 0
SMALL
GASTEIGER

@<TRIPOS>ATOM
      1 C          63.1549   89.7657   16.9029 C.3     1  UNL1        0.0527
      2 C          63.5215   88.6308   15.9932 C.ar    1  UNL1        0.0673
      3 N          63.2970   87.1733   16.2673 N.ar    1  UNL1       -0.2283
      4 C          63.8137   86.3958   15.0931 C.ar    1  UNL1        0.1652
      5 S          64.3575   87.3729   14.0933 S.2     1  UNL1       -0.0517
      6 C          64.1769   88.7542   14.6496 C.ar    1  UNL1        0.0471
      7 C          64.5808   90.0342   13.9798 C.ar    1  UNL1        0.0265
      8 C          63.9035   90.4636   12.7122 C.ar    1  UNL1        0.0049
      9 C          64.3075   91.7435   12.0425 C.ar    1  UNL1        0.0339
     10 C          65.3887   92.5941   12.6404 C.ar    1  UNL1        0.1254
     11 N          65.7926   93.8741   11.9706 N.pl3   1  UNL1       -0.3426
     12 N          66.0660   92.1648   13.9080 N.ar    1  UNL1       -0.2296
     13 C          65.6620   90.8848   14.5777 C.ar    1  UNL1        0.1008
     14 H          65.3481   94.1559   11.1386 H       1  UNL1        0.1437
     15 H          66.5022   94.4324   12.3631 H       1  UNL1        0.1437
     16 N          63.7906   84.9034   14.9447 N.am    1  UNL1       -0.2642
     17 C          63.0226   84.2732   13.8209 C.2     1  UNL1        0.2273
     18 O          62.2776   85.1355   12.8454 O.2     1  UNL1       -0.2747
     19 H          64.2795   84.3375   15.5850 H       1  UNL1        0.1567
     20 C          62.9995   82.7807   13.6725 C.3     1  UNL1        0.0853
     21 C          61.9980   81.9664   14.4367 C.3     1  UNL1        0.0099
     22 C          63.9780   82.1025   12.7600 C.3     1  UNL1        0.1124
     23 C          63.8948   82.3180   11.2779 C.3     1  UNL1        0.3982
     24 F          63.8116   82.5334    9.7958 F       1  UNL1       -0.1700
     25 F          62.7928   81.3040   11.1924 F       1  UNL1       -0.1700
     26 F          64.9969   83.3319   11.3635 F       1  UNL1       -0.1700
@<TRIPOS>BOND
     1     1     2    1
     2     2     3   ar
     3     3     4   ar
     4     4    16    1
     5    16    17   am
     6    17    18    2
     7    17    20    1
     8    20    21    1
     9    20    22    1
    10    22    23    1
    11    23    24    1
    12    23    25    1
    13    23    26    1
    14     4     5   ar
    15     5     6   ar
    16     6     7    1
    17     7     8   ar
    18     8     9   ar
    19     9    10   ar
    20    10    11    1
    21    10    12   ar
    22    12    13   ar
    23     6     2   ar
    24    13     7   ar
    25    16    19    1
    26    11    14    1
    27    11    15    1
@<TRIPOS>MOLECULE
*****
 26 27 0 0 0
SMALL
GASTEIGER

@<TRIPOS>ATOM
      1 C          60.1297   90.4005   11.3458 C.3     1  UNL1        0.0527
      2 C          61.0195   89.1963   11.4352 C.ar    1  UNL1        0.0673
      3 N          60.5766   87.7652   11.3585 N.ar    1  UNL1       -0.2283
      4 C          61.7917   86.8960   11.4928 C.ar    1  UNL1        0.1652
      5 S          62.9856   87.7899   11.6524 S.2     1  UNL1       -0.0517
      6 C          62.5084   89.2116   11.6168 C.ar    1  UNL1        0.0471
      7 C          63.3690   90.4339   11.7409 C.ar    1  UNL1        0.0265
      8 C          63.7221   91.2298   10.5196 C.ar    1  UNL1        0.0049
      9 C          64.5826   92.4520   10.6438 C.ar    1  UNL1        0.0339
     10 C          65.0901   92.8784   11.9894 C.ar    1  UNL1        0.1254
     11 N          65.9507   94.1008   12.1136 N.pl3   1  UNL1       -0.3426
     12 N          64.7369   92.0826   13.2108 N.ar    1  UNL1       -0.2296
     13 C          63.8764   90.8603   13.0866 C.ar    1  UNL1        0.1008
     14 H          66.1824   94.6231   11.3119 H       1  UNL1        0.1437
     15 H          66.2837   94.3807   12.9968 H       1  UNL1        0.1437
     16 N          61.8098   85.3963   11.4713 N.am    1  UNL1       -0.2642
     17 C          62.5922   84.6407   12.5042 C.2     1  UNL1        0.2273
     18 O          63.3566   85.3850   13.5587 O.2     1  UNL1       -0.2747
     19 H          61.3081   84.9079   10.7792 H       1  UNL1        0.1567
     20 C          62.6103   83.1410   12.4827 C.3     1  UNL1        0.0853
     21 C          62.8637   82.4124   11.1962 C.3     1  UNL1        0.0099
     22 C          62.3748   82.3699   13.7476 C.3     1  UNL1        0.1124
     23 C          62.3197   80.8713   13.7131 C.3     1  UNL1        0.3982
     24 F          62.2646   79.3728   13.6786 F       1  UNL1       -0.1700
     25 F          60.8227   80.9281   13.6377 F       1  UNL1       -0.1700
     26 F          63.8167   80.8145   13.7885 F       1  UNL1       -0.1700
@<TRIPOS>BOND
     1     1     2    1
     2     2     3   ar
     3     3     4   ar
     4     4    16    1
     5    16    17   am
     6    17    18    2
     7    17    20    1
     8    20    21    1
     9    20    22    1
    10    22    23    1
    11    23    24    1
    12    23    25    1
    13    23    26    1
    14     4     5   ar
    15     5     6   ar
    16     6     7    1
    17     7     8   ar
    18     8     9   ar
    19     9    10   ar
    20    10    11    1
    21    10    12   ar
    22    12    13   ar
    23     6     2   ar
    24    13     7   ar
    25    16    19    1
    26    11    14    1
    27    11    15    1
@<TRIPOS>MOLECULE
*****
 26 27 0 0 0
SMALL
GASTEIGER

@<TRIPOS>ATOM
      1 C          63.2740   89.8735   16.9478 C.3     1  UNL1        0.0527
      2 C          63.5862   88.7989   15.9488 C.ar    1  UNL1        0.0673
      3 N          63.2400   87.3454   16.0803 N.ar    1  UNL1       -0.2283
      4 C          63.7392   86.6373   14.8558 C.ar    1  UNL1        0.1652
      5 S          64.3941   87.6533   13.9676 S.2     1  UNL1       -0.0517
      6 C          64.2995   88.9893   14.6431 C.ar    1  UNL1        0.0471
      7 C          64.8258   90.2876   14.1069 C.ar    1  UNL1        0.0265
      8 C          66.0732   90.8872   14.6851 C.ar    1  UNL1        0.0049
      9 C          66.5995   92.1854   14.1489 C.ar    1  UNL1        0.0339
     10 C          65.8783   92.8841   13.0346 C.ar    1  UNL1        0.1254
     11 N          66.4047   94.1824   12.4984 N.pl3   1  UNL1       -0.3426
     12 N          64.6309   92.2845   12.4564 N.ar    1  UNL1       -0.2296
     13 C          64.1046   90.9863   12.9926 C.ar    1  UNL1        0.1008
     14 H          67.2234   94.5760   12.8779 H       1  UNL1        0.1437
     15 H          65.9313   94.6410   11.7671 H       1  UNL1        0.1437
     16 N          63.6069   85.1708   14.5698 N.am    1  UNL1       -0.2642
     17 C          62.8326   84.7072   13.3716 C.2     1  UNL1        0.2273
     18 O          62.1906   85.7102   12.4595 O.2     1  UNL1       -0.2747
     19 H          64.0283   84.5126   15.1684 H       1  UNL1        0.1567
     20 C          62.7003   83.2407   13.0856 C.3     1  UNL1        0.0853
     21 C          62.8958   82.7282   11.6895 C.3     1  UNL1        0.0099
     22 C          62.3725   82.2867   14.1957 C.3     1  UNL1        0.1124
     23 C          62.2590   80.8179   13.9133 C.3     1  UNL1        0.3982
     24 F          62.1456   79.3491   13.6309 F       1  UNL1       -0.1700
     25 F          60.7649   80.9423   13.8665 F       1  UNL1       -0.1700
     26 F          63.7531   80.6935   13.9601 F       1  UNL1       -0.1700
@<TRIPOS>BOND
     1     1     2    1
     2     2     3   ar
     3     3     4   ar
     4     4    16    1
     5    16    17   am
     6    17    18    2
     7    17    20    1
     8    20    21    1
     9    20    22    1
    10    22    23    1
    11    23    24    1
    12    23    25    1
    13    23    26    1
    14     4     5   ar
    15     5     6   ar
    16     6     7    1
    17     7     8   ar
    18     8     9   ar
    19     9    10   ar
    20    10    11    1
    21    10    12   ar
    22    12    13   ar
    23     6     2   ar
    24    13     7   ar
    25    16    19    1
    26    11    14    1
    27    11    15    1
@<TRIPOS>MOLECULE
*****
 26 27 0 0 0
SMALL
GASTEIGER

@<TRIPOS>ATOM
      1 C          62.7405   89.3820   11.7254 C.3     1  UNL1        0.0527
      2 C          63.1513   88.1836   12.5286 C.ar    1  UNL1        0.0673
      3 N          63.0110   86.7505   12.1086 N.ar    1  UNL1       -0.2283
      4 C          63.5476   85.8891   13.2132 C.ar    1  UNL1        0.1652
      5 S          64.0196   86.7899   14.3158 S.2     1  UNL1       -0.0517
      6 C          63.7746   88.2080   13.8927 C.ar    1  UNL1        0.0471
      7 C          64.0965   89.4351   14.6932 C.ar    1  UNL1        0.0265
      8 C          65.2149   90.3381   14.2647 C.ar    1  UNL1        0.0049
      9 C          65.5368   91.5651   15.0652 C.ar    1  UNL1        0.0339
     10 C          64.7402   91.8890   16.2943 C.ar    1  UNL1        0.1254
     11 N          65.0621   93.1161   17.0948 N.pl3   1  UNL1       -0.3426
     12 N          63.6219   90.9860   16.7228 N.ar    1  UNL1       -0.2296
     13 C          63.3000   89.7590   15.9223 C.ar    1  UNL1        0.1008
     14 H          65.7962   93.7088   16.8136 H       1  UNL1        0.1437
     15 H          64.5394   93.3287   17.9015 H       1  UNL1        0.1437
     16 N          63.6026   84.3901   13.2148 N.am    1  UNL1       -0.2642
     17 C          63.1107   83.6202   12.0252 C.2     1  UNL1        0.2273
     18 O          62.5638   84.3494   10.8338 O.2     1  UNL1       -0.2747
     19 H          63.9616   83.9115   13.9968 H       1  UNL1        0.1567
     20 C          63.1657   82.1212   12.0268 C.3     1  UNL1        0.0853
     21 C          63.3134   81.3747   10.7342 C.3     1  UNL1        0.0099
     22 C          63.0730   81.3688   13.3211 C.3     1  UNL1        0.1124
     23 C          61.7352   80.9337   13.8415 C.3     1  UNL1        0.3982
     24 F          60.3974   80.4986   14.3619 F       1  UNL1       -0.1700
     25 F          61.5746   82.2549   14.5333 F       1  UNL1       -0.1700
     26 F          61.8958   79.6125   13.1497 F       1  UNL1       -0.1700
@<TRIPOS>BOND
     1     1     2    1
     2     2     3   ar
     3     3     4   ar
     4     4    16    1
     5    16    17   am
     6    17    18    2
     7    17    20    1
     8    20    21    1
     9    20    22    1
    10    22    23    1
    11    23    24    1
    12    23    25    1
    13    23    26    1
    14     4     5   ar
    15     5     6   ar
    16     6     7    1
    17     7     8   ar
    18     8     9   ar
    19     9    10   ar
    20    10    11    1
    21    10    12   ar
    22    12    13   ar
    23     6     2   ar
    24    13     7   ar
    25    16    19    1
    26    11    14    1
    27    11    15    1
@<TRIPOS>MOLECULE
*****
 26 27 0 0 0
SMALL
GASTEIGER

@<TRIPOS>ATOM
      1 C          62.4985   89.8095   11.5387 C.3     1  UNL1        0.0527
      2 C          62.8972   88.5284   12.2092 C.ar    1  UNL1        0.0673
      3 N          62.6911   87.1464   11.6636 N.ar    1  UNL1       -0.2283
      4 C          63.2386   86.1681   12.6603 C.ar    1  UNL1        0.1652
      5 S          63.7831   86.9455   13.8218 S.2     1  UNL1       -0.0517
      6 C          63.5721   88.4042   13.5430 C.ar    1  UNL1        0.0471
      7 C          63.9668   89.5395   14.4406 C.ar    1  UNL1        0.0265
      8 C          65.1153   90.4281   14.0650 C.ar    1  UNL1        0.0049
      9 C          65.5100   91.5633   14.9626 C.ar    1  UNL1        0.0339
     10 C          64.7560   91.8098   16.2357 C.ar    1  UNL1        0.1254
     11 N          65.1507   92.9451   17.1332 N.pl3   1  UNL1       -0.3426
     12 N          63.6075   90.9212   16.6112 N.ar    1  UNL1       -0.2296
     13 C          63.2128   89.7860   15.7137 C.ar    1  UNL1        0.1008
     14 H          65.9045   93.5283   16.8867 H       1  UNL1        0.1437
     15 H          64.6559   93.1069   17.9688 H       1  UNL1        0.1437
     16 N          63.2411   84.6747   12.5200 N.am    1  UNL1       -0.2642
     17 C          62.5932   83.8217   13.5700 C.2     1  UNL1        0.2273
     18 O          61.9427   84.4621   14.7603 O.2     1  UNL1       -0.2747
     19 H          63.6680   84.2544   11.7387 H       1  UNL1        0.1567
     20 C          62.5957   82.3283   13.4297 C.3     1  UNL1        0.0853
     21 C          61.5491   81.5080   14.1238 C.3     1  UNL1        0.0099
     22 C          63.6448   81.6552   12.5952 C.3     1  UNL1        0.1124
     23 C          63.2782   81.0547   11.2705 C.3     1  UNL1        0.3982
     24 F          62.9115   80.4543    9.9457 F       1  UNL1       -0.1700
     25 F          63.8223   82.2650   10.5713 F       1  UNL1       -0.1700
     26 F          62.7340   79.8444   11.9697 F       1  UNL1       -0.1700
@<TRIPOS>BOND
     1     1     2    1
     2     2     3   ar
     3     3     4   ar
     4     4    16    1
     5    16    17   am
     6    17    18    2
     7    17    20    1
     8    20    21    1
     9    20    22    1
    10    22    23    1
    11    23    24    1
    12    23    25    1
    13    23    26    1
    14     4     5   ar
    15     5     6   ar
    16     6     7    1
    17     7     8   ar
    18     8     9   ar
    19     9    10   ar
    20    10    11    1
    21    10    12   ar
    22    12    13   ar
    23     6     2   ar
    24    13     7   ar
    25    16    19    1
    26    11    14    1
    27    11    15    1
@<TRIPOS>MOLECULE
*****
 26 27 0 0 0
SMALL
GASTEIGER

@<TRIPOS>ATOM
      1 C          59.7587   89.8117    9.4571 C.3     1  UNL1        0.0527
      2 C          60.8499   89.3603   10.3820 C.ar    1  UNL1        0.0673
      3 N          61.3278   90.0883   11.6033 N.ar    1  UNL1       -0.2283
      4 C          62.4281   89.2796   12.2242 C.ar    1  UNL1        0.1652
      5 S          62.6302   88.0518   11.3865 S.2     1  UNL1       -0.0517
      6 C          61.6548   88.1017   10.2480 C.ar    1  UNL1        0.0471
      7 C          61.5099   87.0734    9.1655 C.ar    1  UNL1        0.0265
      8 C          62.6898   86.2416    8.7584 C.ar    1  UNL1        0.0049
      9 C          62.5448   85.2133    7.6760 C.ar    1  UNL1        0.0339
     10 C          61.2199   85.0169    7.0007 C.ar    1  UNL1        0.1254
     11 N          61.0749   83.9886    5.9182 N.pl3   1  UNL1       -0.3426
     12 N          60.0400   85.8488    7.4078 N.ar    1  UNL1       -0.2296
     13 C          60.1850   86.8770    8.4902 C.ar    1  UNL1        0.1008
     14 H          61.8494   83.4427    5.6510 H       1  UNL1        0.1437
     15 H          60.2053   83.8597    5.4750 H       1  UNL1        0.1437
     16 N          63.1921   89.6362   13.4648 N.am    1  UNL1       -0.2642
     17 C          64.1587   90.7831   13.4467 C.2     1  UNL1        0.2273
     18 O          64.3613   91.5734   12.1880 O.2     1  UNL1       -0.2747
     19 H          63.0591   89.1174   14.2909 H       1  UNL1        0.1567
     20 C          64.9227   91.1396   14.6874 C.3     1  UNL1        0.0853
     21 C          64.2086   91.2515   16.0017 C.3     1  UNL1        0.0099
     22 C          66.4008   91.3842   14.6136 C.3     1  UNL1        0.1124
     23 C          67.0045   92.5528   15.3347 C.3     1  UNL1        0.3982
     24 F          67.6081   93.7213   16.0559 F       1  UNL1       -0.1700
     25 F          66.1157   93.4858   14.5670 F       1  UNL1       -0.1700
     26 F          67.8932   91.6197   16.1025 F       1  UNL1       -0.1700
@<TRIPOS>BOND
     1     1     2    1
     2     2     3   ar
     3     3     4   ar
     4     4    16    1
     5    16    17   am
     6    17    18    2
     7    17    20    1
     8    20    21    1
     9    20    22    1
    10    22    23    1
    11    23    24    1
    12    23    25    1
    13    23    26    1
    14     4     5   ar
    15     5     6   ar
    16     6     7    1
    17     7     8   ar
    18     8     9   ar
    19     9    10   ar
    20    10    11    1
    21    10    12   ar
    22    12    13   ar
    23     6     2   ar
    24    13     7   ar
    25    16    19    1
    26    11    14    1
    27    11    15    1
@<TRIPOS>MOLECULE
*****
 26 27 0 0 0
SMALL
GASTEIGER

@<TRIPOS>ATOM
      1 C          63.5026   90.3139   16.2228 C.3     1  UNL1        0.0527
      2 C          63.5849   90.3279   14.7251 C.ar    1  UNL1        0.0673
      3 N          62.6054   89.6941   13.7823 N.ar    1  UNL1       -0.2283
      4 C          63.0762   89.9526   12.3818 C.ar    1  UNL1        0.1652
      5 S          64.3467   90.7463   12.4590 S.2     1  UNL1       -0.0517
      6 C          64.6610   90.9782   13.9072 C.ar    1  UNL1        0.0471
      7 C          65.8440   91.7288   14.4435 C.ar    1  UNL1        0.0265
      8 C          65.8219   92.2606   15.8458 C.ar    1  UNL1        0.0049
      9 C          67.0048   93.0111   16.3819 C.ar    1  UNL1        0.0339
     10 C          68.2098   93.2297   15.5158 C.ar    1  UNL1        0.1254
     11 N          69.3927   93.9802   16.0520 N.pl3   1  UNL1       -0.3426
     12 N          68.2318   92.6978   14.1134 N.ar    1  UNL1       -0.2296
     13 C          67.0489   91.9474   13.5773 C.ar    1  UNL1        0.1008
     14 H          69.3782   94.3293   16.9724 H       1  UNL1        0.1437
     15 H          70.1836   94.1237   15.4835 H       1  UNL1        0.1437
     16 N          62.3960   89.4975   11.1248 N.am    1  UNL1       -0.2642
     17 C          62.2281   88.0322   10.8512 C.2     1  UNL1        0.2273
     18 O          62.7405   87.0221   11.8347 O.2     1  UNL1       -0.2747
     19 H          62.0597   90.1604   10.4793 H       1  UNL1        0.1567
     20 C          61.5479   87.5770    9.5942 C.3     1  UNL1        0.0853
     21 C          61.9993   86.3208    8.9098 C.3     1  UNL1        0.0099
     22 C          60.4163   88.3780    9.0216 C.3     1  UNL1        0.1124
     23 C          59.3862   87.7107    8.1593 C.3     1  UNL1        0.3982
     24 F          58.3560   87.0434    7.2971 F       1  UNL1       -0.1700
     25 F          59.0603   86.7671    9.2789 F       1  UNL1       -0.1700
     26 F          59.7120   88.6543    7.0398 F       1  UNL1       -0.1700
@<TRIPOS>BOND
     1     1     2    1
     2     2     3   ar
     3     3     4   ar
     4     4    16    1
     5    16    17   am
     6    17    18    2
     7    17    20    1
     8    20    21    1
     9    20    22    1
    10    22    23    1
    11    23    24    1
    12    23    25    1
    13    23    26    1
    14     4     5   ar
    15     5     6   ar
    16     6     7    1
    17     7     8   ar
    18     8     9   ar
    19     9    10   ar
    20    10    11    1
    21    10    12   ar
    22    12    13   ar
    23     6     2   ar
    24    13     7   ar
    25    16    19    1
    26    11    14    1
    27    11    15    1
@<TRIPOS>MOLECULE
*****
 26 27 0 0 0
SMALL
GASTEIGER

@<TRIPOS>ATOM
      1 C          61.9336   85.7943   10.9024 C.3     1  UNL1        0.0527
      2 C          62.7132   86.1532   12.1325 C.ar    1  UNL1        0.0673
      3 N          63.1553   87.5318   12.5251 N.ar    1  UNL1       -0.2283
      4 C          63.9029   87.4273   13.8213 C.ar    1  UNL1        0.1652
      5 S          63.9228   85.9841   14.2299 S.2     1  UNL1       -0.0517
      6 C          63.1875   85.1967   13.1861 C.ar    1  UNL1        0.0471
      7 C          62.9655   83.7132   13.1946 C.ar    1  UNL1        0.0265
      8 C          63.2768   82.9013   11.9723 C.ar    1  UNL1        0.0049
      9 C          63.0548   81.4179   11.9808 C.ar    1  UNL1        0.0339
     10 C          62.5216   80.7464   13.2115 C.ar    1  UNL1        0.1254
     11 N          62.2996   79.2629   13.2200 N.pl3   1  UNL1       -0.3426
     12 N          62.2103   81.5583   14.4338 N.ar    1  UNL1       -0.2296
     13 C          62.4323   83.0417   14.4253 C.ar    1  UNL1        0.1008
     14 H          62.5039   78.7300   12.4177 H       1  UNL1        0.1437
     15 H          61.9496   78.8221   14.0277 H       1  UNL1        0.1437
     16 N          64.5220   88.5660   14.5764 N.am    1  UNL1       -0.2642
     17 C          64.4482   89.9593   14.0257 C.2     1  UNL1        0.2273
     18 O          63.7554   90.2138   12.7197 O.2     1  UNL1       -0.2747
     19 H          64.9766   88.3989   15.4335 H       1  UNL1        0.1567
     20 C          65.0672   91.0980   14.7807 C.3     1  UNL1        0.0853
     21 C          64.4144   91.6130   16.0292 C.3     1  UNL1        0.0099
     22 C          66.3391   91.7217   14.2874 C.3     1  UNL1        0.1124
     23 C          67.0777   92.7015   15.1500 C.3     1  UNL1        0.3982
     24 F          67.8163   93.6814   16.0127 F       1  UNL1       -0.1700
     25 F          66.3352   93.8321   14.5016 F       1  UNL1       -0.1700
     26 F          67.8202   91.5710   15.7984 F       1  UNL1       -0.1700
@<TRIPOS>BOND
     1     1     2    1
     2     2     3   ar
     3     3     4   ar
     4     4    16    1
     5    16    17   am
     6    17    18    2
     7    17    20    1
     8    20    21    1
     9    20    22    1
    10    22    23    1
    11    23    24    1
    12    23    25    1
    13    23    26    1
    14     4     5   ar
    15     5     6   ar
    16     6     7    1
    17     7     8   ar
    18     8     9   ar
    19     9    10   ar
    20    10    11    1
    21    10    12   ar
    22    12    13   ar
    23     6     2   ar
    24    13     7   ar
    25    16    19    1
    26    11    14    1
    27    11    15    1
