@<TRIPOS>MOLECULE
*****
 29 32 0 0 0
SMALL
GASTEIGER

@<TRIPOS>ATOM
      1 C          71.7588   77.8885   12.5867 C.ar    1  UNL1        0.0507
      2 C          71.2651   76.6216   11.9534 C.ar    1  UNL1        0.0161
      3 C          71.2658   75.3420   12.7362 C.ar    1  UNL1        0.0193
      4 C          71.7602   75.3293   14.1523 C.ar    1  UNL1        0.0930
      5 C          72.2540   76.5963   14.7856 C.ar    1  UNL1        0.0193
      6 C          72.2533   77.8758   14.0028 C.ar    1  UNL1        0.0161
      7 N          71.7609   74.0498   14.9351 N.pl3   1  UNL1       -0.0680
      8 S          72.6402   72.8614   14.6812 S.O2    1  UNL1        0.0957
      9 O          73.1828   73.6999   13.5620 O.2     1  UNL1       -0.1483
     10 O          73.6330   71.8483   14.1934 O.2     1  UNL1       -0.1483
     11 C          72.3052   71.8111   15.6984 C.ar    1  UNL1        0.1459
     12 C          72.8490   70.4333   15.9350 C.ar    1  UNL1        0.0216
     13 C          72.3064   69.5949   17.0541 C.ar    1  UNL1        0.0015
     14 C          71.2200   70.1342   17.9367 C.ar    1  UNL1        0.0015
     15 C          70.6762   71.5119   17.7001 C.ar    1  UNL1        0.0216
     16 C          71.2188   72.3504   16.5809 C.ar    1  UNL1        0.1459
     17 S          70.8824   73.7340   16.1092 S.O2    1  UNL1        0.0957
     18 O          69.8902   73.7062   17.2338 O.2     1  UNL1       -0.1483
     19 O          70.3386   75.1118   15.8725 O.2     1  UNL1       -0.1483
     20 O          73.3688   78.1048   10.0646 O.2     1  UNL1       -0.2682
     21 C          72.5631   79.2762   10.5429 C.2     1  UNL1        0.2672
     22 N          71.7581   79.1680   11.8040 N.am    1  UNL1       -0.2791
     23 H          71.2293   79.9368   12.1179 H       1  UNL1        0.1552
     24 C          72.5624   80.5558    9.7601 C.ar    1  UNL1        0.1348
     25 C          72.9819   80.5542    8.3200 C.ar    1  UNL1        0.0238
     26 C          72.9812   81.8337    7.5372 C.ar    1  UNL1        0.0033
     27 C          72.5609   83.1149    8.1946 C.ar    1  UNL1        0.0207
     28 C          72.1414   83.1164    9.6347 C.ar    1  UNL1        0.0990
     29 N          72.1421   81.8369   10.4175 N.ar    1  UNL1       -0.2392
@<TRIPOS>BOND
     1    20    21    2
     2    21    22   am
     3    22     1    1
     4     1     2   ar
     5     2     3   ar
     6     3     4   ar
     7     4     7    1
     8     7     8    1
     9     8     9    2
    10     8    10    2
    11     8    11    1
    12    11    12   ar
    13    12    13   ar
    14    13    14   ar
    15    14    15   ar
    16    15    16   ar
    17    16    17    1
    18    17    18    2
    19    17    19    2
    20     4     5   ar
    21     5     6   ar
    22    21    24    1
    23    24    25   ar
    24    25    26   ar
    25    26    27   ar
    26    27    28   ar
    27    28    29   ar
    28     6     1   ar
    29    29    24   ar
    30    17     7    1
    31    16    11   ar
    32    22    23    1
@<TRIPOS>MOLECULE
*****
 29 32 0 0 0
SMALL
GASTEIGER

@<TRIPOS>ATOM
      1 C          55.9111   94.8093   -1.7598 C.ar    1  UNL1        0.0507
      2 C          56.7517   95.9205   -1.2043 C.ar    1  UNL1        0.0161
      3 C          58.1566   95.6460   -0.7561 C.ar    1  UNL1        0.0193
      4 C          58.7209   94.2604   -0.8635 C.ar    1  UNL1        0.0930
      5 C          57.8803   93.1492   -1.4191 C.ar    1  UNL1        0.0193
      6 C          56.4754   93.4237   -1.8672 C.ar    1  UNL1        0.0161
      7 N          60.1258   93.9859   -0.4153 N.pl3   1  UNL1       -0.0680
      8 S          60.5314   93.3938    0.9018 S.O2    1  UNL1        0.0957
      9 O          59.0548   93.3653    1.1650 O.2     1  UNL1       -0.1483
     10 O          60.6282   92.7957    2.2740 O.2     1  UNL1       -0.1483
     11 C          62.0281   93.2973    0.9256 C.ar    1  UNL1        0.1459
     12 C          62.9850   92.7933    1.9650 C.ar    1  UNL1        0.0216
     13 C          64.4614   92.8219    1.7018 C.ar    1  UNL1        0.0015
     14 C          64.9809   93.3544    0.3993 C.ar    1  UNL1        0.0015
     15 C          64.0240   93.8583   -0.6401 C.ar    1  UNL1        0.0216
     16 C          62.5476   93.8297   -0.3769 C.ar    1  UNL1        0.1459
     17 S          61.3719   94.2553   -1.2057 S.O2    1  UNL1        0.0957
     18 O          62.4180   94.6301   -2.2133 O.2     1  UNL1       -0.1483
     19 O          60.4150   94.7593   -2.2451 O.2     1  UNL1       -0.1483
     20 O          55.4163   96.3149   -4.3071 O.2     1  UNL1       -0.2682
     21 C          54.2587   95.8366   -3.4816 C.2     1  UNL1        0.2672
     22 N          54.5061   95.0838   -2.2080 N.am    1  UNL1       -0.2791
     23 H          53.7464   94.7699   -1.6662 H       1  UNL1        0.1552
     24 C          52.8538   96.1110   -3.9297 C.ar    1  UNL1        0.1348
     25 C          51.7675   96.3079   -2.9141 C.ar    1  UNL1        0.0238
     26 C          50.3626   96.5824   -3.3623 C.ar    1  UNL1        0.0033
     27 C          50.0439   96.6600   -4.8261 C.ar    1  UNL1        0.0207
     28 C          51.1302   96.4631   -5.8416 C.ar    1  UNL1        0.0990
     29 N          52.5351   96.1886   -5.3934 N.ar    1  UNL1       -0.2392
@<TRIPOS>BOND
     1    20    21    2
     2    21    22   am
     3    22     1    1
     4     1     2   ar
     5     2     3   ar
     6     3     4   ar
     7     4     7    1
     8     7     8    1
     9     8     9    2
    10     8    10    2
    11     8    11    1
    12    11    12   ar
    13    12    13   ar
    14    13    14   ar
    15    14    15   ar
    16    15    16   ar
    17    16    17    1
    18    17    18    2
    19    17    19    2
    20     4     5   ar
    21     5     6   ar
    22    21    24    1
    23    24    25   ar
    24    25    26   ar
    25    26    27   ar
    26    27    28   ar
    27    28    29   ar
    28     6     1   ar
    29    29    24   ar
    30    17     7    1
    31    16    11   ar
    32    22    23    1
@<TRIPOS>MOLECULE
*****
 29 32 0 0 0
SMALL
GASTEIGER

@<TRIPOS>ATOM
      1 C          55.9157   94.8257   -1.7698 C.ar    1  UNL1        0.0507
      2 C          56.7541   95.9334   -1.2041 C.ar    1  UNL1        0.0161
      3 C          58.1574   95.6562   -0.7524 C.ar    1  UNL1        0.0193
      4 C          58.7222   94.2713   -0.8665 C.ar    1  UNL1        0.0930
      5 C          57.8838   93.1636   -1.4322 C.ar    1  UNL1        0.0193
      6 C          56.4805   93.4408   -1.8838 C.ar    1  UNL1        0.0161
      7 N          60.1255   93.9941   -0.4149 N.pl3   1  UNL1       -0.0680
      8 S          61.3738   94.2566   -1.2041 S.O2    1  UNL1        0.0957
      9 O          60.4202   94.7596   -2.2470 O.2     1  UNL1       -0.1483
     10 O          62.4227   94.6243   -2.2113 O.2     1  UNL1       -0.1483
     11 C          62.5467   93.8305   -0.3718 C.ar    1  UNL1        0.1459
     12 C          64.0236   93.8533   -0.6325 C.ar    1  UNL1        0.0216
     13 C          64.9772   93.3503    0.4104 C.ar    1  UNL1        0.0015
     14 C          64.4537   92.8244    1.7140 C.ar    1  UNL1        0.0015
     15 C          62.9768   92.8015    1.9748 C.ar    1  UNL1        0.0216
     16 C          62.0233   93.3046    0.9319 C.ar    1  UNL1        0.1459
     17 S          60.5269   93.4057    0.9052 S.O2    1  UNL1        0.0957
     18 O          60.6195   92.8125    2.2798 O.2     1  UNL1       -0.1483
     19 O          59.0499   93.3828    1.1659 O.2     1  UNL1       -0.1483
     20 O          55.4299   96.3145   -4.3286 O.2     1  UNL1       -0.2682
     21 C          54.2695   95.8473   -3.5007 C.2     1  UNL1        0.2672
     22 N          54.5124   95.1029   -2.2214 N.am    1  UNL1       -0.2791
     23 H          53.7508   94.7963   -1.6781 H       1  UNL1        0.1552
     24 C          52.8662   96.1245   -3.9523 C.ar    1  UNL1        0.1348
     25 C          51.7778   96.3233   -2.9394 C.ar    1  UNL1        0.0238
     26 C          50.3745   96.6005   -3.3910 C.ar    1  UNL1        0.0033
     27 C          50.0596   96.6789   -4.8556 C.ar    1  UNL1        0.0207
     28 C          51.1480   96.4801   -5.8684 C.ar    1  UNL1        0.0990
     29 N          52.5513   96.2029   -5.4168 N.ar    1  UNL1       -0.2392
@<TRIPOS>BOND
     1    20    21    2
     2    21    22   am
     3    22     1    1
     4     1     2   ar
     5     2     3   ar
     6     3     4   ar
     7     4     7    1
     8     7     8    1
     9     8     9    2
    10     8    10    2
    11     8    11    1
    12    11    12   ar
    13    12    13   ar
    14    13    14   ar
    15    14    15   ar
    16    15    16   ar
    17    16    17    1
    18    17    18    2
    19    17    19    2
    20     4     5   ar
    21     5     6   ar
    22    21    24    1
    23    24    25   ar
    24    25    26   ar
    25    26    27   ar
    26    27    28   ar
    27    28    29   ar
    28     6     1   ar
    29    29    24   ar
    30    17     7    1
    31    16    11   ar
    32    22    23    1
@<TRIPOS>MOLECULE
*****
 29 32 0 0 0
SMALL
GASTEIGER

@<TRIPOS>ATOM
      1 C          72.8443   76.8746   12.1482 C.ar    1  UNL1        0.0507
      2 C          73.6330   76.7188   13.4146 C.ar    1  UNL1        0.0161
      3 C          73.3414   75.5783   14.3442 C.ar    1  UNL1        0.0193
      4 C          72.2612   74.5936   14.0074 C.ar    1  UNL1        0.0930
      5 C          71.4725   74.7494   12.7411 C.ar    1  UNL1        0.0193
      6 C          71.7641   75.8899   11.8115 C.ar    1  UNL1        0.0161
      7 N          71.9696   73.4530   14.9371 N.pl3   1  UNL1       -0.0680
      8 S          71.1345   73.5211   16.1812 S.O2    1  UNL1        0.0957
      9 O          70.9768   74.9652   15.8074 O.2     1  UNL1       -0.1483
     10 O          70.2664   73.8910   17.3472 O.2     1  UNL1       -0.1483
     11 C          71.1107   72.1543   16.7989 C.ar    1  UNL1        0.1459
     12 C          70.4480   71.6230   18.0352 C.ar    1  UNL1        0.0216
     13 C          70.6056   70.1789   18.4090 C.ar    1  UNL1        0.0015
     14 C          71.4261   69.2662   17.5465 C.ar    1  UNL1        0.0015
     15 C          72.0888   69.7975   16.3102 C.ar    1  UNL1        0.0216
     16 C          71.9311   71.2416   15.9364 C.ar    1  UNL1        0.1459
     17 S          72.4619   72.0442   14.7858 S.O2    1  UNL1        0.0957
     18 O          73.0928   70.7466   14.3760 O.2     1  UNL1       -0.1483
     19 O          73.1246   72.5756   13.5494 O.2     1  UNL1       -0.1483
     20 O          71.1700   79.3617   12.2540 O.2     1  UNL1       -0.2682
     21 C          72.2988   79.2586   11.2714 C.2     1  UNL1        0.2672
     22 N          73.1359   78.0151   11.2186 N.am    1  UNL1       -0.2791
     23 H          73.8767   77.9475   10.5737 H       1  UNL1        0.1552
     24 C          72.5904   80.3991   10.3418 C.ar    1  UNL1        0.1348
     25 C          73.3125   80.1488    9.0511 C.ar    1  UNL1        0.0238
     26 C          73.6041   81.2894    8.1214 C.ar    1  UNL1        0.0033
     27 C          73.1735   82.6802    8.4826 C.ar    1  UNL1        0.0207
     28 C          72.4514   82.9304    9.7733 C.ar    1  UNL1        0.0990
     29 N          72.1599   81.7899   10.7029 N.ar    1  UNL1       -0.2392
@<TRIPOS>BOND
     1    20    21    2
     2    21    22   am
     3    22     1    1
     4     1     2   ar
     5     2     3   ar
     6     3     4   ar
     7     4     7    1
     8     7     8    1
     9     8     9    2
    10     8    10    2
    11     8    11    1
    12    11    12   ar
    13    12    13   ar
    14    13    14   ar
    15    14    15   ar
    16    15    16   ar
    17    16    17    1
    18    17    18    2
    19    17    19    2
    20     4     5   ar
    21     5     6   ar
    22    21    24    1
    23    24    25   ar
    24    25    26   ar
    25    26    27   ar
    26    27    28   ar
    27    28    29   ar
    28     6     1   ar
    29    29    24   ar
    30    17     7    1
    31    16    11   ar
    32    22    23    1
@<TRIPOS>MOLECULE
*****
 29 32 0 0 0
SMALL
GASTEIGER

@<TRIPOS>ATOM
      1 C          72.5416   77.2712   13.5529 C.ar    1  UNL1        0.0507
      2 C          71.4538   77.0856   12.5369 C.ar    1  UNL1        0.0161
      3 C          71.4551   77.9026   11.2789 C.ar    1  UNL1        0.0193
      4 C          72.5442   78.9052   11.0369 C.ar    1  UNL1        0.0930
      5 C          73.6320   79.0908   12.0529 C.ar    1  UNL1        0.0193
      6 C          73.6307   78.2738   13.3108 C.ar    1  UNL1        0.0161
      7 N          72.5455   79.7222    9.7789 N.pl3   1  UNL1       -0.0680
      8 S          72.0362   81.1261    9.6388 S.O2    1  UNL1        0.0957
      9 O          71.7198   80.9894   11.0988 O.2     1  UNL1       -0.1483
     10 O          71.4607   82.5014    9.8040 O.2     1  UNL1       -0.1483
     11 C          72.2322   81.5503    8.2135 C.ar    1  UNL1        0.1459
     12 C          71.9181   82.8287    7.4945 C.ar    1  UNL1        0.0216
     13 C          72.2345   82.9653    6.0347 C.ar    1  UNL1        0.0015
     14 C          72.8650   81.8236    5.2938 C.ar    1  UNL1        0.0015
     15 C          73.1791   80.5452    6.0128 C.ar    1  UNL1        0.0216
     16 C          72.8627   80.4086    7.4726 C.ar    1  UNL1        0.1459
     17 S          73.0563   79.2787    8.4401 S.O2    1  UNL1        0.0957
     18 O          73.6329   78.5680    7.2517 O.2     1  UNL1       -0.1483
     19 O          73.3705   78.0003    9.1592 O.2     1  UNL1       -0.1483
     20 O          71.4222   74.4879   13.5327 O.2     1  UNL1       -0.2682
     21 C          71.9806   75.0626   14.8008 C.2     1  UNL1        0.2672
     22 N          72.5403   76.4542   14.8108 N.am    1  UNL1       -0.2791
     23 H          72.9068   76.8314   15.6431 H       1  UNL1        0.1552
     24 C          71.9794   74.2456   16.0588 C.ar    1  UNL1        0.1348
     25 C          70.8689   73.2713   16.3192 C.ar    1  UNL1        0.0238
     26 C          70.8676   72.4543   17.5771 C.ar    1  UNL1        0.0033
     27 C          71.9768   72.6116   18.5747 C.ar    1  UNL1        0.0207
     28 C          73.0871   73.5858   18.3143 C.ar    1  UNL1        0.0990
     29 N          73.0884   74.4028   17.0563 N.ar    1  UNL1       -0.2392
@<TRIPOS>BOND
     1    20    21    2
     2    21    22   am
     3    22     1    1
     4     1     2   ar
     5     2     3   ar
     6     3     4   ar
     7     4     7    1
     8     7     8    1
     9     8     9    2
    10     8    10    2
    11     8    11    1
    12    11    12   ar
    13    12    13   ar
    14    13    14   ar
    15    14    15   ar
    16    15    16   ar
    17    16    17    1
    18    17    18    2
    19    17    19    2
    20     4     5   ar
    21     5     6   ar
    22    21    24    1
    23    24    25   ar
    24    25    26   ar
    25    26    27   ar
    26    27    28   ar
    27    28    29   ar
    28     6     1   ar
    29    29    24   ar
    30    17     7    1
    31    16    11   ar
    32    22    23    1
@<TRIPOS>MOLECULE
*****
 29 32 0 0 0
SMALL
GASTEIGER

@<TRIPOS>ATOM
      1 C          64.0533   90.4984   12.8249 C.ar    1  UNL1        0.0507
      2 C          64.6634   89.7103   13.9459 C.ar    1  UNL1        0.0161
      3 C          64.3815   88.2423   14.0708 C.ar    1  UNL1        0.0193
      4 C          63.4896   87.5625   13.0747 C.ar    1  UNL1        0.0930
      5 C          62.8795   88.3506   11.9537 C.ar    1  UNL1        0.0193
      6 C          63.1614   89.8186   11.8288 C.ar    1  UNL1        0.0161
      7 N          63.2077   86.0945   13.1996 N.pl3   1  UNL1       -0.0680
      8 S          62.8889   85.1588   12.0714 S.O2    1  UNL1        0.0957
      9 O          63.0384   86.3852   11.2206 O.2     1  UNL1       -0.1483
     10 O          62.6014   84.4795   10.7653 O.2     1  UNL1       -0.1483
     11 C          62.6794   83.7905   12.6491 C.ar    1  UNL1        0.1459
     12 C          62.3407   82.4742   12.0146 C.ar    1  UNL1        0.0216
     13 C          62.1912   81.2479   12.8654 C.ar    1  UNL1        0.0015
     14 C          62.3805   81.3379   14.3506 C.ar    1  UNL1        0.0015
     15 C          62.7192   82.6542   14.9851 C.ar    1  UNL1        0.0216
     16 C          62.8686   83.8805   14.1344 C.ar    1  UNL1        0.1459
     17 S          63.1952   85.3044   14.4746 S.O2    1  UNL1        0.0957
     18 O          63.2534   84.7896   15.8822 O.2     1  UNL1       -0.1483
     19 O          63.5339   86.6208   15.1090 O.2     1  UNL1       -0.1483
     20 O          66.1143   91.4694   10.8731 O.2     1  UNL1       -0.2682
     21 C          65.3656   92.4519   11.7242 C.2     1  UNL1        0.2672
     22 N          64.3351   91.9664   12.7001 N.am    1  UNL1       -0.2791
     23 H          63.8438   92.6113   13.2586 H       1  UNL1        0.1552
     24 C          65.6474   93.9199   11.5993 C.ar    1  UNL1        0.1348
     25 C          65.3557   94.6328   10.3121 C.ar    1  UNL1        0.0238
     26 C          65.6376   96.1008   10.1872 C.ar    1  UNL1        0.0033
     27 C          66.2111   96.8559   11.3495 C.ar    1  UNL1        0.0207
     28 C          66.5028   96.1430   12.6367 C.ar    1  UNL1        0.0990
     29 N          66.2210   94.6750   12.7615 N.ar    1  UNL1       -0.2392
@<TRIPOS>BOND
     1    20    21    2
     2    21    22   am
     3    22     1    1
     4     1     2   ar
     5     2     3   ar
     6     3     4   ar
     7     4     7    1
     8     7     8    1
     9     8     9    2
    10     8    10    2
    11     8    11    1
    12    11    12   ar
    13    12    13   ar
    14    13    14   ar
    15    14    15   ar
    16    15    16   ar
    17    16    17    1
    18    17    18    2
    19    17    19    2
    20     4     5   ar
    21     5     6   ar
    22    21    24    1
    23    24    25   ar
    24    25    26   ar
    25    26    27   ar
    26    27    28   ar
    27    28    29   ar
    28     6     1   ar
    29    29    24   ar
    30    17     7    1
    31    16    11   ar
    32    22    23    1
@<TRIPOS>MOLECULE
*****
 29 32 0 0 0
SMALL
GASTEIGER

@<TRIPOS>ATOM
      1 C          64.0387   90.4960   12.8166 C.ar    1  UNL1        0.0507
      2 C          64.6408   89.7197   13.9501 C.ar    1  UNL1        0.0161
      3 C          64.3673   88.2507   14.0818 C.ar    1  UNL1        0.0193
      4 C          63.4917   87.5581   13.0801 C.ar    1  UNL1        0.0930
      5 C          62.8895   88.3344   11.9467 C.ar    1  UNL1        0.0193
      6 C          63.1630   89.8033   11.8149 C.ar    1  UNL1        0.0161
      7 N          63.2182   86.0891   13.2118 N.pl3   1  UNL1       -0.0680
      8 S          63.2188   85.3032   14.4895 S.O2    1  UNL1        0.0957
      9 O          63.5555   86.6234   15.1172 O.2     1  UNL1       -0.1483
     10 O          63.2899   84.7933   15.8983 O.2     1  UNL1       -0.1483
     11 C          62.8970   83.8765   14.1563 C.ar    1  UNL1        0.1459
     12 C          62.7600   82.6523   15.0122 C.ar    1  UNL1        0.0216
     13 C          62.4233   81.3323   14.3845 C.ar    1  UNL1        0.0015
     14 C          62.2238   81.2364   12.9009 C.ar    1  UNL1        0.0015
     15 C          62.3609   82.4606   12.0450 C.ar    1  UNL1        0.0216
     16 C          62.6975   83.7806   12.6727 C.ar    1  UNL1        0.1459
     17 S          62.8960   85.1481   12.0890 S.O2    1  UNL1        0.0957
     18 O          62.6024   84.4630   10.7873 O.2     1  UNL1       -0.1483
     19 O          63.0331   86.3723   11.2332 O.2     1  UNL1       -0.1483
     20 O          66.1604   91.4634   10.9292 O.2     1  UNL1       -0.2682
     21 C          65.3730   92.4486   11.7412 C.2     1  UNL1        0.2672
     22 N          64.3122   91.9649   12.6849 N.am    1  UNL1       -0.2791
     23 H          63.7954   92.6116   13.2179 H       1  UNL1        0.1552
     24 C          65.6465   93.9176   11.6095 C.ar    1  UNL1        0.1348
     25 C          65.3417   94.6248   10.3222 C.ar    1  UNL1        0.0238
     26 C          65.6152   96.0937   10.1904 C.ar    1  UNL1        0.0033
     27 C          66.1935   96.8555   11.3460 C.ar    1  UNL1        0.0207
     28 C          66.4982   96.1484   12.6333 C.ar    1  UNL1        0.0990
     29 N          66.2247   94.6794   12.7650 N.ar    1  UNL1       -0.2392
@<TRIPOS>BOND
     1    20    21    2
     2    21    22   am
     3    22     1    1
     4     1     2   ar
     5     2     3   ar
     6     3     4   ar
     7     4     7    1
     8     7     8    1
     9     8     9    2
    10     8    10    2
    11     8    11    1
    12    11    12   ar
    13    12    13   ar
    14    13    14   ar
    15    14    15   ar
    16    15    16   ar
    17    16    17    1
    18    17    18    2
    19    17    19    2
    20     4     5   ar
    21     5     6   ar
    22    21    24    1
    23    24    25   ar
    24    25    26   ar
    25    26    27   ar
    26    27    28   ar
    27    28    29   ar
    28     6     1   ar
    29    29    24   ar
    30    17     7    1
    31    16    11   ar
    32    22    23    1
@<TRIPOS>MOLECULE
*****
 29 32 0 0 0
SMALL
GASTEIGER

@<TRIPOS>ATOM
      1 C          64.3991   86.5430   14.5049 C.ar    1  UNL1        0.0507
      2 C          65.3112   85.3746   14.7343 C.ar    1  UNL1        0.0161
      3 C          65.0155   84.0539   14.0875 C.ar    1  UNL1        0.0193
      4 C          63.8077   83.9017   13.2112 C.ar    1  UNL1        0.0930
      5 C          62.8956   85.0702   12.9817 C.ar    1  UNL1        0.0193
      6 C          63.1913   86.3908   13.6285 C.ar    1  UNL1        0.0161
      7 N          63.5120   82.5811   12.5643 N.pl3   1  UNL1       -0.0680
      8 S          63.6346   82.2682   11.1024 S.O2    1  UNL1        0.0957
      9 O          64.0738   83.6984   10.9941 O.2     1  UNL1       -0.1483
     10 O          63.8490   82.2543    9.6179 O.2     1  UNL1       -0.1483
     11 C          63.2401   80.8351   10.9004 C.ar    1  UNL1        0.1459
     12 C          63.1673   79.9779    9.6717 C.ar    1  UNL1        0.0216
     13 C          62.7280   78.5478    9.7801 C.ar    1  UNL1        0.0015
     14 C          62.3616   77.9749   11.1171 C.ar    1  UNL1        0.0015
     15 C          62.4345   78.8322   12.3458 C.ar    1  UNL1        0.0216
     16 C          62.8738   80.2623   12.2374 C.ar    1  UNL1        0.1459
     17 S          63.0418   81.3413   13.2658 S.O2    1  UNL1        0.0957
     18 O          62.5868   80.2809   14.2241 O.2     1  UNL1       -0.1483
     19 O          63.1147   82.1987   14.4945 O.2     1  UNL1       -0.1483
     20 O          63.9035   89.0929   13.0039 O.2     1  UNL1       -0.2682
     21 C          64.4470   89.1386   14.4012 C.2     1  UNL1        0.2672
     22 N          64.6948   87.8637   15.1517 N.am    1  UNL1       -0.2791
     23 H          65.0515   87.8937   16.0688 H       1  UNL1        0.1552
     24 C          64.7427   90.4593   15.0481 C.ar    1  UNL1        0.1348
     25 C          65.9345   91.2584   14.6109 C.ar    1  UNL1        0.0238
     26 C          66.2302   92.5791   15.2577 C.ar    1  UNL1        0.0033
     27 C          65.3341   93.1006   16.3418 C.ar    1  UNL1        0.0207
     28 C          64.1424   92.3014   16.7790 C.ar    1  UNL1        0.0990
     29 N          63.8467   90.9808   16.1321 N.ar    1  UNL1       -0.2392
@<TRIPOS>BOND
     1    20    21    2
     2    21    22   am
     3    22     1    1
     4     1     2   ar
     5     2     3   ar
     6     3     4   ar
     7     4     7    1
     8     7     8    1
     9     8     9    2
    10     8    10    2
    11     8    11    1
    12    11    12   ar
    13    12    13   ar
    14    13    14   ar
    15    14    15   ar
    16    15    16   ar
    17    16    17    1
    18    17    18    2
    19    17    19    2
    20     4     5   ar
    21     5     6   ar
    22    21    24    1
    23    24    25   ar
    24    25    26   ar
    25    26    27   ar
    26    27    28   ar
    27    28    29   ar
    28     6     1   ar
    29    29    24   ar
    30    17     7    1
    31    16    11   ar
    32    22    23    1
@<TRIPOS>MOLECULE
*****
 29 32 0 0 0
SMALL
GASTEIGER

@<TRIPOS>ATOM
      1 C          64.3932   86.5380   14.5119 C.ar    1  UNL1        0.0507
      2 C          65.3012   85.3677   14.7480 C.ar    1  UNL1        0.0161
      3 C          65.0066   84.0472   14.1002 C.ar    1  UNL1        0.0193
      4 C          63.8041   83.8971   13.2162 C.ar    1  UNL1        0.0930
      5 C          62.8961   85.0675   12.9801 C.ar    1  UNL1        0.0193
      6 C          63.1907   86.3879   13.6279 C.ar    1  UNL1        0.0161
      7 N          63.5096   82.5767   12.5684 N.pl3   1  UNL1       -0.0680
      8 S          63.0360   81.3374   13.2682 S.O2    1  UNL1        0.0957
      9 O          63.1054   82.1947   14.4972 O.2     1  UNL1       -0.1483
     10 O          62.5769   80.2773   14.2250 O.2     1  UNL1       -0.1483
     11 C          62.8706   80.2585   12.2394 C.ar    1  UNL1        0.1459
     12 C          62.4299   78.8287   12.3462 C.ar    1  UNL1        0.0216
     13 C          62.3605   77.9714   11.1173 C.ar    1  UNL1        0.0015
     14 C          62.7319   78.5439    9.7816 C.ar    1  UNL1        0.0015
     15 C          63.1727   79.9737    9.6747 C.ar    1  UNL1        0.0216
     16 C          63.2421   80.8310   10.9036 C.ar    1  UNL1        0.1459
     17 S          63.6369   82.2637   11.1070 S.O2    1  UNL1        0.0957
     18 O          63.8564   82.2496    9.6232 O.2     1  UNL1       -0.1483
     19 O          64.0777   83.6935   11.0001 O.2     1  UNL1       -0.1483
     20 O          63.9199   89.0877   13.0034 O.2     1  UNL1       -0.2682
     21 C          64.4511   89.1333   14.4055 C.2     1  UNL1        0.2672
     22 N          64.6877   87.8585   15.1597 N.am    1  UNL1       -0.2791
     23 H          65.0363   87.8884   16.0799 H       1  UNL1        0.1552
     24 C          64.7456   90.4537   15.0533 C.ar    1  UNL1        0.1348
     25 C          65.9361   91.2547   14.6160 C.ar    1  UNL1        0.0238
     26 C          66.2307   92.5751   15.2638 C.ar    1  UNL1        0.0033
     27 C          65.3347   93.0946   16.3490 C.ar    1  UNL1        0.0207
     28 C          64.1442   92.2936   16.7862 C.ar    1  UNL1        0.0990
     29 N          63.8497   90.9732   16.1384 N.ar    1  UNL1       -0.2392
@<TRIPOS>BOND
     1    20    21    2
     2    21    22   am
     3    22     1    1
     4     1     2   ar
     5     2     3   ar
     6     3     4   ar
     7     4     7    1
     8     7     8    1
     9     8     9    2
    10     8    10    2
    11     8    11    1
    12    11    12   ar
    13    12    13   ar
    14    13    14   ar
    15    14    15   ar
    16    15    16   ar
    17    16    17    1
    18    17    18    2
    19    17    19    2
    20     4     5   ar
    21     5     6   ar
    22    21    24    1
    23    24    25   ar
    24    25    26   ar
    25    26    27   ar
    26    27    28   ar
    27    28    29   ar
    28     6     1   ar
    29    29    24   ar
    30    17     7    1
    31    16    11   ar
    32    22    23    1
