@<TRIPOS>MOLECULE
*****
 35 38 0 0 0
SMALL
GASTEIGER

@<TRIPOS>ATOM
      1 S          63.7228   89.3174   12.7357 S.O2    1  UNL1        0.0634
      2 O          63.3940   90.1207   11.5124 O.2     1  UNL1       -0.1528
      3 O          64.0517   88.5142   13.9590 O.2     1  UNL1       -0.1528
      4 C          64.5043   90.4739   13.2850 C.ar    1  UNL1        0.1254
      5 C          65.0762   90.4024   14.6699 C.ar    1  UNL1        0.0232
      6 C          65.8577   91.5589   15.2193 C.ar    1  UNL1        0.0412
      7 C          66.0672   92.7869   14.3838 C.ar    1  UNL1        0.1684
      8 O          66.8487   93.9434   14.9331 O.3     1  UNL1       -0.5028
      9 C          65.4954   92.8585   12.9990 C.ar    1  UNL1        0.1800
     10 C          64.7139   91.7020   12.4496 C.ar    1  UNL1        0.0605
     11 H          67.2060   93.8988   15.7982 H       1  UNL1        0.2923
     12 O          65.7049   94.0865   12.1635 O.3     1  UNL1       -0.4504
     13 C          66.5411   94.0141   10.9202 C.ar    1  UNL1        0.1463
     14 C          67.2610   92.7446   10.5735 C.ar    1  UNL1        0.0375
     15 C          68.0971   92.6721    9.3303 C.ar    1  UNL1        0.0040
     16 C          68.2133   93.8691    8.4338 C.ar    1  UNL1        0.0116
     17 C          67.4935   95.1386    8.7806 C.ar    1  UNL1        0.0607
     18 CL         67.6098   96.3356    7.8841 Cl      1  UNL1       -0.0821
     19 C          66.6573   95.2111   10.0238 C.ar    1  UNL1        0.0489
     20 C          62.3892   85.6223   12.1728 C.3     1  UNL1        0.1076
     21 C          61.3785   85.8479   11.0877 C.3     1  UNL1        0.0257
     22 C          61.1492   87.2300   10.5519 C.3     1  UNL1        0.0211
     23 C          61.9306   88.3866   11.1012 C.3     1  UNL1        0.0959
     24 N          62.9414   88.1610   12.1864 N.3     1  UNL1       -0.1536
     25 C          63.1707   86.7787   12.7221 C.3     1  UNL1        0.1184
     26 C          63.0325   80.5305   11.3603 C.3     1  UNL1        0.0376
     27 C          62.9401   81.6942   12.3023 C.ar    1  UNL1        0.0514
     28 C          62.7109   83.0763   11.7666 C.ar    1  UNL1        0.0801
     29 N          62.6185   84.2400   12.7085 N.ar    1  UNL1       -0.2806
     30 C          62.7554   84.0216   14.1862 C.ar    1  UNL1        0.3305
     31 O          62.6631   85.1853   15.1281 O.2     1  UNL1       -0.2464
     32 N          62.9847   82.6394   14.7219 N.ar    1  UNL1       -0.2746
     33 C          63.0770   81.4757   13.7799 C.ar    1  UNL1        0.2584
     34 O          63.3063   80.0935   14.3157 O.2     1  UNL1       -0.2674
     35 H          63.0746   82.4960   15.6917 H       1  UNL1        0.1734
@<TRIPOS>BOND
     1    26    27    1
     2    27    28   ar
     3    28    29   ar
     4    20    29    1
     5    20    21    1
     6    21    22    1
     7    22    23    1
     8    23    24    1
     9    24     1    1
    10     1     2    2
    11     1     3    2
    12     1     4    1
    13     4     5   ar
    14     5     6   ar
    15     6     7   ar
    16     7     8    1
    17     7     9   ar
    18     9    12    1
    19    12    13    1
    20    13    14   ar
    21    14    15   ar
    22    15    16   ar
    23    16    17   ar
    24    17    18    1
    25    17    19   ar
    26     9    10   ar
    27    24    25    1
    28    29    30   ar
    29    30    31    2
    30    30    32   ar
    31    32    33   ar
    32    33    34    2
    33    33    27   ar
    34    25    20    1
    35    10     4   ar
    36    19    13   ar
    37     8    11    1
    38    32    35    1
@<TRIPOS>MOLECULE
*****
 35 38 0 0 0
SMALL
GASTEIGER

@<TRIPOS>ATOM
      1 S          63.7320   89.9638   12.6492 S.O2    1  UNL1        0.0634
      2 O          64.0151   89.0218   13.7816 O.2     1  UNL1       -0.1528
      3 O          63.4489   90.9058   11.5168 O.2     1  UNL1       -0.1528
      4 C          64.6445   90.9812   13.2674 C.ar    1  UNL1        0.1254
      5 C          65.2902   90.7028   14.5924 C.ar    1  UNL1        0.0232
      6 C          66.2027   91.7202   15.2106 C.ar    1  UNL1        0.0412
      7 C          66.4696   93.0160   14.5038 C.ar    1  UNL1        0.1684
      8 O          67.3821   94.0334   15.1220 O.3     1  UNL1       -0.5028
      9 C          65.8240   93.2945   13.1788 C.ar    1  UNL1        0.1800
     10 C          64.9114   92.2771   12.5606 C.ar    1  UNL1        0.0605
     11 H          67.7855   93.8595   15.9497 H       1  UNL1        0.2923
     12 O          66.0909   94.5903   12.4720 O.3     1  UNL1       -0.4504
     13 C          66.5941   94.5841   11.0589 C.ar    1  UNL1        0.1463
     14 C          66.2820   95.7331   10.1466 C.ar    1  UNL1        0.0375
     15 C          66.7852   95.7269    8.7336 C.ar    1  UNL1        0.0040
     16 C          67.6003   94.5717    8.2328 C.ar    1  UNL1        0.0116
     17 C          67.9124   93.4226    9.1451 C.ar    1  UNL1        0.0607
     18 CL         68.7276   92.2673    8.6442 Cl      1  UNL1       -0.0821
     19 C          67.4093   93.4288   10.5581 C.ar    1  UNL1        0.0489
     20 C          62.1975   86.4660   11.5720 C.3     1  UNL1        0.1076
     21 C          60.9945   86.9116   10.7947 C.3     1  UNL1        0.0257
     22 C          60.7039   88.3745   10.6355 C.3     1  UNL1        0.0211
     23 C          61.6165   89.3920   11.2537 C.3     1  UNL1        0.0959
     24 N          62.8195   88.9464   12.0310 N.3     1  UNL1       -0.1536
     25 C          63.1100   87.4834   12.1901 C.3     1  UNL1        0.1184
     26 C          62.2900   82.1917   14.5252 C.3     1  UNL1        0.0376
     27 C          62.5342   82.8659   13.2077 C.ar    1  UNL1        0.0514
     28 C          62.2438   84.3288   13.0486 C.ar    1  UNL1        0.0801
     29 N          62.4880   85.0030   11.7311 N.ar    1  UNL1       -0.2806
     30 C          63.0227   84.2142   10.5727 C.ar    1  UNL1        0.3305
     31 O          63.2669   84.8884    9.2552 O.2     1  UNL1       -0.2464
     32 N          63.3132   82.7513   10.7318 N.ar    1  UNL1       -0.2746
     33 C          63.0689   82.0771   12.0494 C.ar    1  UNL1        0.2584
     34 O          63.3594   80.6141   12.2085 O.2     1  UNL1       -0.2674
     35 H          63.6641   82.2336    9.9716 H       1  UNL1        0.1734
@<TRIPOS>BOND
     1    26    27    1
     2    27    28   ar
     3    28    29   ar
     4    20    29    1
     5    20    21    1
     6    21    22    1
     7    22    23    1
     8    23    24    1
     9    24     1    1
    10     1     2    2
    11     1     3    2
    12     1     4    1
    13     4     5   ar
    14     5     6   ar
    15     6     7   ar
    16     7     8    1
    17     7     9   ar
    18     9    12    1
    19    12    13    1
    20    13    14   ar
    21    14    15   ar
    22    15    16   ar
    23    16    17   ar
    24    17    18    1
    25    17    19   ar
    26     9    10   ar
    27    24    25    1
    28    29    30   ar
    29    30    31    2
    30    30    32   ar
    31    32    33   ar
    32    33    34    2
    33    33    27   ar
    34    25    20    1
    35    10     4   ar
    36    19    13   ar
    37     8    11    1
    38    32    35    1
@<TRIPOS>MOLECULE
*****
 35 38 0 0 0
SMALL
GASTEIGER

@<TRIPOS>ATOM
      1 S          63.8323   86.8038   14.9386 S.O2    1  UNL1        0.0634
      2 O          63.8455   87.2192   13.4973 O.2     1  UNL1       -0.1528
      3 O          63.8191   86.3884   16.3798 O.2     1  UNL1       -0.1528
      4 C          63.8192   85.3626   14.5231 C.ar    1  UNL1        0.1254
      5 C          63.9490   84.2829   15.5563 C.ar    1  UNL1        0.0232
      6 C          63.9358   82.8417   15.1409 C.ar    1  UNL1        0.0412
      7 C          63.7929   82.4801   13.6922 C.ar    1  UNL1        0.1684
      8 O          63.7797   81.0388   13.2767 O.3     1  UNL1       -0.5028
      9 C          63.6630   83.5596   12.6589 C.ar    1  UNL1        0.1800
     10 C          63.6762   85.0009   13.0744 C.ar    1  UNL1        0.0605
     11 H          63.8608   80.3644   13.9221 H       1  UNL1        0.2923
     12 O          63.5201   83.1980   11.2102 O.3     1  UNL1       -0.4504
     13 C          62.9569   84.1943   10.2405 C.ar    1  UNL1        0.1463
     14 C          63.4293   84.2049    8.8169 C.ar    1  UNL1        0.0375
     15 C          62.8662   85.2012    7.8472 C.ar    1  UNL1        0.0040
     16 C          61.8306   86.1869    8.3012 C.ar    1  UNL1        0.0116
     17 C          61.3582   86.1762    9.7248 C.ar    1  UNL1        0.0607
     18 CL         60.3226   87.1620   10.1788 Cl      1  UNL1       -0.0821
     19 C          61.9213   85.1800   10.6945 C.ar    1  UNL1        0.0489
     20 C          64.4966   90.7161   14.8849 C.3     1  UNL1        0.1076
     21 C          63.8717   91.1275   16.1850 C.3     1  UNL1        0.0257
     22 C          63.2338   90.0978   17.0696 C.3     1  UNL1        0.0211
     23 C          63.2206   88.6565   16.6541 C.3     1  UNL1        0.0959
     24 N          63.8454   88.2450   15.3541 N.3     1  UNL1       -0.1536
     25 C          64.4834   89.2748   14.4694 C.3     1  UNL1        0.1184
     26 C          65.0185   92.9371   10.2164 C.3     1  UNL1        0.0376
     27 C          65.3955   92.8564   11.6660 C.ar    1  UNL1        0.0514
     28 C          64.7576   91.8266   12.5507 C.ar    1  UNL1        0.0801
     29 N          65.1346   91.7459   14.0003 N.ar    1  UNL1       -0.2806
     30 C          66.1495   92.6949   14.5652 C.ar    1  UNL1        0.3305
     31 O          66.5266   92.6141   16.0148 O.2     1  UNL1       -0.2464
     32 N          66.7875   93.7246   13.6806 N.ar    1  UNL1       -0.2746
     33 C          66.4105   93.8054   12.2310 C.ar    1  UNL1        0.2584
     34 O          67.0485   94.8352   11.3464 O.2     1  UNL1       -0.2674
     35 H          67.4536   94.3475   14.0514 H       1  UNL1        0.1734
@<TRIPOS>BOND
     1    26    27    1
     2    27    28   ar
     3    28    29   ar
     4    20    29    1
     5    20    21    1
     6    21    22    1
     7    22    23    1
     8    23    24    1
     9    24     1    1
    10     1     2    2
    11     1     3    2
    12     1     4    1
    13     4     5   ar
    14     5     6   ar
    15     6     7   ar
    16     7     8    1
    17     7     9   ar
    18     9    12    1
    19    12    13    1
    20    13    14   ar
    21    14    15   ar
    22    15    16   ar
    23    16    17   ar
    24    17    18    1
    25    17    19   ar
    26     9    10   ar
    27    24    25    1
    28    29    30   ar
    29    30    31    2
    30    30    32   ar
    31    32    33   ar
    32    33    34    2
    33    33    27   ar
    34    25    20    1
    35    10     4   ar
    36    19    13   ar
    37     8    11    1
    38    32    35    1
@<TRIPOS>MOLECULE
*****
 35 38 0 0 0
SMALL
GASTEIGER

@<TRIPOS>ATOM
      1 S          64.2262   89.4227   15.2936 S.O2    1  UNL1        0.0634
      2 O          64.9116   88.6210   14.2271 O.2     1  UNL1       -0.1528
      3 O          63.5408   90.2244   16.3601 O.2     1  UNL1       -0.1528
      4 C          64.7947   90.6829   14.7117 C.ar    1  UNL1        0.1254
      5 C          65.5339   91.6480   15.5905 C.ar    1  UNL1        0.0232
      6 C          66.1025   92.9082   15.0086 C.ar    1  UNL1        0.0412
      7 C          65.9318   93.2034   13.5479 C.ar    1  UNL1        0.1684
      8 O          66.5004   94.4636   12.9660 O.3     1  UNL1       -0.5028
      9 C          65.1927   92.2384   12.6691 C.ar    1  UNL1        0.1800
     10 C          64.6241   90.9781   13.2509 C.ar    1  UNL1        0.0605
     11 H          66.9621   95.0664   13.5150 H       1  UNL1        0.2923
     12 O          65.0221   92.5336   11.2083 O.3     1  UNL1       -0.4504
     13 C          66.1991   92.9754   10.3900 C.ar    1  UNL1        0.1463
     14 C          67.3953   92.0809   10.2528 C.ar    1  UNL1        0.0375
     15 C          68.5722   92.5227    9.4345 C.ar    1  UNL1        0.0040
     16 C          68.5529   93.8590    8.7534 C.ar    1  UNL1        0.0116
     17 C          67.3566   94.7535    8.8906 C.ar    1  UNL1        0.0607
     18 CL         67.3374   96.0898    8.2094 Cl      1  UNL1       -0.0821
     19 C          66.1797   94.3117    9.7089 C.ar    1  UNL1        0.0489
     20 C          63.1750   85.6164   15.6897 C.3     1  UNL1        0.1076
     21 C          62.5206   85.6421   17.0392 C.3     1  UNL1        0.0257
     22 C          62.4347   86.9279   17.8068 C.3     1  UNL1        0.0211
     23 C          63.0033   88.1882   17.2249 C.3     1  UNL1        0.0959
     24 N          63.6577   88.1625   15.8755 N.3     1  UNL1       -0.1536
     25 C          63.7435   86.8766   15.1078 C.3     1  UNL1        0.1184
     26 C          61.0118   81.1612   14.1175 C.3     1  UNL1        0.0376
     27 C          62.1792   82.1030   14.1360 C.ar    1  UNL1        0.0514
     28 C          62.0934   83.3888   14.9036 C.ar    1  UNL1        0.0801
     29 N          63.2608   84.3305   14.9221 N.ar    1  UNL1       -0.2806
     30 C          64.5140   83.9864   14.1732 C.ar    1  UNL1        0.3305
     31 O          65.6814   84.9281   14.1917 O.2     1  UNL1       -0.2464
     32 N          64.5998   82.7005   13.4056 N.ar    1  UNL1       -0.2746
     33 C          63.4324   81.7588   13.3870 C.ar    1  UNL1        0.2584
     34 O          63.5182   80.4729   12.6194 O.2     1  UNL1       -0.2674
     35 H          65.4223   82.4746   12.9140 H       1  UNL1        0.1734
@<TRIPOS>BOND
     1    26    27    1
     2    27    28   ar
     3    28    29   ar
     4    20    29    1
     5    20    21    1
     6    21    22    1
     7    22    23    1
     8    23    24    1
     9    24     1    1
    10     1     2    2
    11     1     3    2
    12     1     4    1
    13     4     5   ar
    14     5     6   ar
    15     6     7   ar
    16     7     8    1
    17     7     9   ar
    18     9    12    1
    19    12    13    1
    20    13    14   ar
    21    14    15   ar
    22    15    16   ar
    23    16    17   ar
    24    17    18    1
    25    17    19   ar
    26     9    10   ar
    27    24    25    1
    28    29    30   ar
    29    30    31    2
    30    30    32   ar
    31    32    33   ar
    32    33    34    2
    33    33    27   ar
    34    25    20    1
    35    10     4   ar
    36    19    13   ar
    37     8    11    1
    38    32    35    1
@<TRIPOS>MOLECULE
*****
 35 38 0 0 0
SMALL
GASTEIGER

@<TRIPOS>ATOM
      1 S          63.1031   90.3776   12.5894 S.O2    1  UNL1        0.0634
      2 O          62.8081   89.8580   13.9652 O.2     1  UNL1       -0.1528
      3 O          63.3981   90.8973   11.2136 O.2     1  UNL1       -0.1528
      4 C          64.3276   91.0680   13.1128 C.ar    1  UNL1        0.1254
      5 C          65.0958   90.4699   14.2540 C.ar    1  UNL1        0.0232
      6 C          66.3203   91.1602   14.7773 C.ar    1  UNL1        0.0412
      7 C          66.7768   92.4486   14.1595 C.ar    1  UNL1        0.1684
      8 O          68.0013   93.1389   14.6828 O.3     1  UNL1       -0.5028
      9 C          66.0087   93.0467   13.0183 C.ar    1  UNL1        0.1800
     10 C          64.7841   92.3563   12.4949 C.ar    1  UNL1        0.0605
     11 H          68.4811   92.7653   15.3956 H       1  UNL1        0.2923
     12 O          66.4652   94.3350   12.4004 O.3     1  UNL1       -0.4504
     13 C          66.8834   94.3694   10.9603 C.ar    1  UNL1        0.1463
     14 C          66.5380   95.5538   10.1071 C.ar    1  UNL1        0.0375
     15 C          66.9563   95.5882    8.6670 C.ar    1  UNL1        0.0040
     16 C          67.7198   94.4382    8.0801 C.ar    1  UNL1        0.0116
     17 C          68.0652   93.2538    8.9333 C.ar    1  UNL1        0.0607
     18 CL         68.8289   92.1038    8.3464 Cl      1  UNL1       -0.0821
     19 C          67.6470   93.2194   10.3734 C.ar    1  UNL1        0.0489
     20 C          60.7689   88.0254   10.4057 C.3     1  UNL1        0.1076
     21 C          59.4294   88.3066   11.0194 C.3     1  UNL1        0.0257
     22 C          59.3144   89.2782   12.1564 C.3     1  UNL1        0.0211
     23 C          60.5390   89.9685   12.6798 C.3     1  UNL1        0.0959
     24 N          61.8785   89.6873   12.0661 N.3     1  UNL1       -0.1536
     25 C          61.9935   88.7158   10.9290 C.3     1  UNL1        0.1184
     26 C          63.5005   84.4622    7.7900 C.3     1  UNL1        0.0376
     27 C          62.2496   85.2723    7.9608 C.ar    1  UNL1        0.0514
     28 C          62.1347   86.2438    9.0978 C.ar    1  UNL1        0.0801
     29 N          60.8838   87.0539    9.2686 N.ar    1  UNL1       -0.2806
     30 C          59.7480   86.8924    8.3024 C.ar    1  UNL1        0.3305
     31 O          58.4971   87.7025    8.4732 O.2     1  UNL1       -0.2464
     32 N          59.8629   85.9208    7.1654 N.ar    1  UNL1       -0.2746
     33 C          61.1138   85.1108    6.9946 C.ar    1  UNL1        0.2584
     34 O          61.2287   84.1392    5.8575 O.2     1  UNL1       -0.2674
     35 H          59.1174   85.8149    6.5312 H       1  UNL1        0.1734
@<TRIPOS>BOND
     1    26    27    1
     2    27    28   ar
     3    28    29   ar
     4    20    29    1
     5    20    21    1
     6    21    22    1
     7    22    23    1
     8    23    24    1
     9    24     1    1
    10     1     2    2
    11     1     3    2
    12     1     4    1
    13     4     5   ar
    14     5     6   ar
    15     6     7   ar
    16     7     8    1
    17     7     9   ar
    18     9    12    1
    19    12    13    1
    20    13    14   ar
    21    14    15   ar
    22    15    16   ar
    23    16    17   ar
    24    17    18    1
    25    17    19   ar
    26     9    10   ar
    27    24    25    1
    28    29    30   ar
    29    30    31    2
    30    30    32   ar
    31    32    33   ar
    32    33    34    2
    33    33    27   ar
    34    25    20    1
    35    10     4   ar
    36    19    13   ar
    37     8    11    1
    38    32    35    1
@<TRIPOS>MOLECULE
*****
 35 38 0 0 0
SMALL
GASTEIGER

@<TRIPOS>ATOM
      1 S          63.8500   87.9814   14.2252 S.O2    1  UNL1        0.0634
      2 O          63.6439   88.6706   12.9090 O.2     1  UNL1       -0.1528
      3 O          64.0562   87.2922   15.5414 O.2     1  UNL1       -0.1528
      4 C          64.2010   89.2952   14.8581 C.ar    1  UNL1        0.1254
      5 C          63.3948   89.8104   16.0134 C.ar    1  UNL1        0.0232
      6 C          63.7458   91.1242   16.6463 C.ar    1  UNL1        0.0412
      7 C          64.9031   91.9229   16.1241 C.ar    1  UNL1        0.1684
      8 O          65.2542   93.2367   16.7570 O.3     1  UNL1       -0.5028
      9 C          65.7094   91.4078   14.9689 C.ar    1  UNL1        0.1800
     10 C          65.3583   90.0939   14.3359 C.ar    1  UNL1        0.0605
     11 H          64.7505   93.5585   17.4786 H       1  UNL1        0.2923
     12 O          66.8667   92.2064   14.4466 O.3     1  UNL1       -0.4504
     13 C          66.8376   92.7407   13.0452 C.ar    1  UNL1        0.1463
     14 C          66.1151   94.0205   12.7453 C.ar    1  UNL1        0.0375
     15 C          66.0860   94.5548   11.3440 C.ar    1  UNL1        0.0040
     16 C          66.7795   93.8092   10.2426 C.ar    1  UNL1        0.0116
     17 C          67.5021   92.5294   10.5425 C.ar    1  UNL1        0.0607
     18 CL         68.1956   91.7838    9.4410 Cl      1  UNL1       -0.0821
     19 C          67.5312   91.9951   11.9438 C.ar    1  UNL1        0.0489
     20 C          62.7347   85.3022   11.5183 C.3     1  UNL1        0.1076
     21 C          62.7969   84.0400   12.3263 C.3     1  UNL1        0.0257
     22 C          63.2101   84.0916   13.7673 C.3     1  UNL1        0.0211
     23 C          63.5612   85.4054   14.4003 C.3     1  UNL1        0.0959
     24 N          63.4990   86.6676   13.5923 N.3     1  UNL1       -0.1536
     25 C          63.0857   86.6160   12.1512 C.3     1  UNL1        0.1184
     26 C          59.4671   86.6839    7.7217 C.3     1  UNL1        0.0376
     27 C          60.6876   85.9414    8.1789 C.ar    1  UNL1        0.0514
     28 C          61.1009   85.9930    9.6199 C.ar    1  UNL1        0.0801
     29 N          62.3214   85.2505   10.0772 N.ar    1  UNL1       -0.2806
     30 C          63.1286   84.4564    9.0935 C.ar    1  UNL1        0.3305
     31 O          64.3491   83.7139    9.5507 O.2     1  UNL1       -0.2464
     32 N          62.7153   84.4048    7.6525 N.ar    1  UNL1       -0.2746
     33 C          61.4948   85.1473    7.1952 C.ar    1  UNL1        0.2584
     34 O          61.0816   85.0956    5.7541 O.2     1  UNL1       -0.2674
     35 H          63.2452   83.8836    7.0068 H       1  UNL1        0.1734
@<TRIPOS>BOND
     1    26    27    1
     2    27    28   ar
     3    28    29   ar
     4    20    29    1
     5    20    21    1
     6    21    22    1
     7    22    23    1
     8    23    24    1
     9    24     1    1
    10     1     2    2
    11     1     3    2
    12     1     4    1
    13     4     5   ar
    14     5     6   ar
    15     6     7   ar
    16     7     8    1
    17     7     9   ar
    18     9    12    1
    19    12    13    1
    20    13    14   ar
    21    14    15   ar
    22    15    16   ar
    23    16    17   ar
    24    17    18    1
    25    17    19   ar
    26     9    10   ar
    27    24    25    1
    28    29    30   ar
    29    30    31    2
    30    30    32   ar
    31    32    33   ar
    32    33    34    2
    33    33    27   ar
    34    25    20    1
    35    10     4   ar
    36    19    13   ar
    37     8    11    1
    38    32    35    1
@<TRIPOS>MOLECULE
*****
 35 38 0 0 0
SMALL
GASTEIGER

@<TRIPOS>ATOM
      1 S          61.7840   89.4053   10.2535 S.O2    1  UNL1        0.0634
      2 O          62.4885   88.0985   10.0397 O.2     1  UNL1       -0.1528
      3 O          61.0795   90.7122   10.4672 O.2     1  UNL1       -0.1528
      4 C          62.7315   89.7337   11.3689 C.ar    1  UNL1        0.1254
      5 C          63.0537   88.7008   12.4079 C.ar    1  UNL1        0.0232
      6 C          64.0012   89.0292   13.5234 C.ar    1  UNL1        0.0412
      7 C          64.6268   90.3904   13.5998 C.ar    1  UNL1        0.1684
      8 O          65.5743   90.7188   14.7152 O.3     1  UNL1       -0.5028
      9 C          64.3047   91.4232   12.5609 C.ar    1  UNL1        0.1800
     10 C          63.3571   91.0949   11.4454 C.ar    1  UNL1        0.0605
     11 H          65.7755   90.0736   15.3643 H       1  UNL1        0.2923
     12 O          64.9302   92.7844   12.6373 O.3     1  UNL1       -0.4504
     13 C          65.7956   93.2763   11.5151 C.ar    1  UNL1        0.1463
     14 C          65.6976   94.7030   11.0624 C.ar    1  UNL1        0.0375
     15 C          66.5629   95.1949    9.9402 C.ar    1  UNL1        0.0040
     16 C          67.5261   94.2601    9.2708 C.ar    1  UNL1        0.0116
     17 C          67.6240   92.8333    9.7234 C.ar    1  UNL1        0.0607
     18 CL         68.5873   91.8985    9.0539 Cl      1  UNL1       -0.0821
     19 C          66.7588   92.3415   10.8456 C.ar    1  UNL1        0.0489
     20 C          59.7804   89.6615    6.8373 C.3     1  UNL1        0.1076
     21 C          58.9412   88.4202    6.9071 C.3     1  UNL1        0.0257
     22 C          59.0495   87.5073    8.0923 C.3     1  UNL1        0.0211
     23 C          59.9971   87.8357    9.2079 C.3     1  UNL1        0.0959
     24 N          60.8364   89.0769    9.1381 N.3     1  UNL1       -0.1536
     25 C          60.7280   89.9899    7.9528 C.3     1  UNL1        0.1184
     26 C          62.0329   92.3021    2.9703 C.3     1  UNL1        0.0376
     27 C          60.7983   91.8947    3.7186 C.ar    1  UNL1        0.0514
     28 C          60.9066   90.9819    4.9038 C.ar    1  UNL1        0.0801
     29 N          59.6721   90.5745    5.6520 N.ar    1  UNL1       -0.2806
     30 C          58.3291   91.0799    5.2150 C.ar    1  UNL1        0.3305
     31 O          57.0946   90.6725    5.9632 O.2     1  UNL1       -0.2464
     32 N          58.2208   91.9928    4.0297 N.ar    1  UNL1       -0.2746
     33 C          59.4554   92.4002    3.2815 C.ar    1  UNL1        0.2584
     34 O          59.3470   93.3132    2.0962 O.2     1  UNL1       -0.2674
     35 H          57.3394   92.3246    3.7429 H       1  UNL1        0.1734
@<TRIPOS>BOND
     1    26    27    1
     2    27    28   ar
     3    28    29   ar
     4    20    29    1
     5    20    21    1
     6    21    22    1
     7    22    23    1
     8    23    24    1
     9    24     1    1
    10     1     2    2
    11     1     3    2
    12     1     4    1
    13     4     5   ar
    14     5     6   ar
    15     6     7   ar
    16     7     8    1
    17     7     9   ar
    18     9    12    1
    19    12    13    1
    20    13    14   ar
    21    14    15   ar
    22    15    16   ar
    23    16    17   ar
    24    17    18    1
    25    17    19   ar
    26     9    10   ar
    27    24    25    1
    28    29    30   ar
    29    30    31    2
    30    30    32   ar
    31    32    33   ar
    32    33    34    2
    33    33    27   ar
    34    25    20    1
    35    10     4   ar
    36    19    13   ar
    37     8    11    1
    38    32    35    1
@<TRIPOS>MOLECULE
*****
 35 38 0 0 0
SMALL
GASTEIGER

@<TRIPOS>ATOM
      1 S          63.5327   88.1784   13.5668 S.O2    1  UNL1        0.0634
      2 O          63.1572   87.3257   12.3913 O.2     1  UNL1       -0.1528
      3 O          63.9082   89.0311   14.7423 O.2     1  UNL1       -0.1528
      4 C          63.6147   89.3782   12.6703 C.ar    1  UNL1        0.1254
      5 C          62.7584   89.4560   11.4411 C.ar    1  UNL1        0.0232
      6 C          62.8404   90.6557   10.5446 C.ar    1  UNL1        0.0412
      7 C          63.7788   91.7778   10.8772 C.ar    1  UNL1        0.1684
      8 O          63.8608   92.9775    9.9807 O.3     1  UNL1       -0.5028
      9 C          64.6350   91.7000   12.1063 C.ar    1  UNL1        0.1800
     10 C          64.5530   90.5002   13.0029 C.ar    1  UNL1        0.0605
     11 H          63.3259   93.0261    9.2129 H       1  UNL1        0.2923
     12 O          65.5733   92.8221   12.4389 O.3     1  UNL1       -0.4504
     13 C          66.3945   93.4587   11.3570 C.ar    1  UNL1        0.1463
     14 C          66.3234   94.9405   11.1351 C.ar    1  UNL1        0.0375
     15 C          67.1445   95.5771   10.0533 C.ar    1  UNL1        0.0040
     16 C          68.0368   94.7319    9.1933 C.ar    1  UNL1        0.0116
     17 C          68.1079   93.2501    9.4152 C.ar    1  UNL1        0.0607
     18 CL         69.0002   92.4050    8.5552 Cl      1  UNL1       -0.0821
     19 C          67.2868   92.6135   10.4971 C.ar    1  UNL1        0.0489
     20 C          63.1522   84.4161   14.7712 C.3     1  UNL1        0.1076
     21 C          63.2865   84.5789   16.2563 C.3     1  UNL1        0.0257
     22 C          63.5029   85.9415   16.8449 C.3     1  UNL1        0.0211
     23 C          63.5849   87.1414   15.9484 C.3     1  UNL1        0.0959
     24 N          63.4506   86.9786   14.4633 N.3     1  UNL1       -0.1536
     25 C          63.2343   85.6159   13.8747 C.3     1  UNL1        0.1184
     26 C          60.2360   80.1458   14.2614 C.3     1  UNL1        0.0376
     27 C          61.4778   80.9183   13.9278 C.ar    1  UNL1        0.0514
     28 C          61.6941   82.2809   14.5163 C.ar    1  UNL1        0.0801
     29 N          62.9359   83.0534   14.1826 N.ar    1  UNL1       -0.2806
     30 C          63.9612   82.4633   13.2605 C.ar    1  UNL1        0.3305
     31 O          65.2030   83.2359   12.9268 O.2     1  UNL1       -0.2464
     32 N          63.7448   81.1007   12.6720 N.ar    1  UNL1       -0.2746
     33 C          62.5031   80.3282   13.0056 C.ar    1  UNL1        0.2584
     34 O          62.2868   78.9655   12.4170 O.2     1  UNL1       -0.2674
     35 H          64.4178   80.7134   12.0667 H       1  UNL1        0.1734
@<TRIPOS>BOND
     1    26    27    1
     2    27    28   ar
     3    28    29   ar
     4    20    29    1
     5    20    21    1
     6    21    22    1
     7    22    23    1
     8    23    24    1
     9    24     1    1
    10     1     2    2
    11     1     3    2
    12     1     4    1
    13     4     5   ar
    14     5     6   ar
    15     6     7   ar
    16     7     8    1
    17     7     9   ar
    18     9    12    1
    19    12    13    1
    20    13    14   ar
    21    14    15   ar
    22    15    16   ar
    23    16    17   ar
    24    17    18    1
    25    17    19   ar
    26     9    10   ar
    27    24    25    1
    28    29    30   ar
    29    30    31    2
    30    30    32   ar
    31    32    33   ar
    32    33    34    2
    33    33    27   ar
    34    25    20    1
    35    10     4   ar
    36    19    13   ar
    37     8    11    1
    38    32    35    1
@<TRIPOS>MOLECULE
*****
 35 38 0 0 0
SMALL
GASTEIGER

@<TRIPOS>ATOM
      1 S          63.9329   88.3360   14.0264 S.O2    1  UNL1        0.0634
      2 O          63.3401   89.1555   12.9188 O.2     1  UNL1       -0.1528
      3 O          64.5258   87.5164   15.1340 O.2     1  UNL1       -0.1528
      4 C          64.2900   89.5919   14.7646 C.ar    1  UNL1        0.1254
      5 C          63.5691   89.9484   16.0309 C.ar    1  UNL1        0.0232
      6 C          63.9262   91.2043   16.7691 C.ar    1  UNL1        0.0412
      7 C          65.0042   92.1039   16.2411 C.ar    1  UNL1        0.1684
      8 O          65.3613   93.3598   16.9794 O.3     1  UNL1       -0.5028
      9 C          65.7251   91.7475   14.9750 C.ar    1  UNL1        0.1800
     10 C          65.3680   90.4914   14.2367 C.ar    1  UNL1        0.0605
     11 H          64.9110   93.5825   17.7703 H       1  UNL1        0.2923
     12 O          66.8031   92.6470   14.4470 O.3     1  UNL1       -0.4504
     13 C          66.8604   92.9699   12.9832 C.ar    1  UNL1        0.1463
     14 C          67.5916   92.0587   12.0423 C.ar    1  UNL1        0.0375
     15 C          67.6489   92.3815   10.5786 C.ar    1  UNL1        0.0040
     16 C          66.9751   93.6155   10.0558 C.ar    1  UNL1        0.0116
     17 C          66.2440   94.5266   10.9967 C.ar    1  UNL1        0.0607
     18 CL         65.5701   95.7606   10.4739 Cl      1  UNL1       -0.0821
     19 C          66.1866   94.2038   12.4604 C.ar    1  UNL1        0.0489
     20 C          62.4615   85.9033   11.2575 C.3     1  UNL1        0.1076
     21 C          62.8616   84.5681   11.8117 C.3     1  UNL1        0.0257
     22 C          63.6188   84.4888   13.1041 C.3     1  UNL1        0.0211
     23 C          63.9759   85.7448   13.8424 C.3     1  UNL1        0.0959
     24 N          63.5758   87.0800   13.2882 N.3     1  UNL1       -0.1536
     25 C          62.8186   87.1592   11.9957 C.3     1  UNL1        0.1184
     26 C          61.9168   84.5478    6.2709 C.3     1  UNL1        0.0376
     27 C          61.4320   85.3047    7.4717 C.ar    1  UNL1        0.0514
     28 C          62.1891   85.2255    8.7642 C.ar    1  UNL1        0.0801
     29 N          61.7043   85.9825    9.9650 N.ar    1  UNL1       -0.2806
     30 C          60.4624   86.8187    9.8734 C.ar    1  UNL1        0.3305
     31 O          59.9776   87.5756   11.0742 O.2     1  UNL1       -0.2464
     32 N          59.7053   86.8978    8.5810 N.ar    1  UNL1       -0.2746
     33 C          60.1901   86.1409    7.3801 C.ar    1  UNL1        0.2584
     34 O          59.4329   86.2201    6.0876 O.2     1  UNL1       -0.2674
     35 H          58.8902   87.4466    8.5208 H       1  UNL1        0.1734
@<TRIPOS>BOND
     1    26    27    1
     2    27    28   ar
     3    28    29   ar
     4    20    29    1
     5    20    21    1
     6    21    22    1
     7    22    23    1
     8    23    24    1
     9    24     1    1
    10     1     2    2
    11     1     3    2
    12     1     4    1
    13     4     5   ar
    14     5     6   ar
    15     6     7   ar
    16     7     8    1
    17     7     9   ar
    18     9    12    1
    19    12    13    1
    20    13    14   ar
    21    14    15   ar
    22    15    16   ar
    23    16    17   ar
    24    17    18    1
    25    17    19   ar
    26     9    10   ar
    27    24    25    1
    28    29    30   ar
    29    30    31    2
    30    30    32   ar
    31    32    33   ar
    32    33    34    2
    33    33    27   ar
    34    25    20    1
    35    10     4   ar
    36    19    13   ar
    37     8    11    1
    38    32    35    1
