@<TRIPOS>MOLECULE
*****
 90 90 0 0 0
SMALL
GASTEIGER

@<TRIPOS>ATOM
      1 C          60.5073   87.9016    8.1252 C.3     1  UNL1        0.1789
      2 C          61.2984   86.7839    8.7376 C.2     1  UNL1        0.2433
      3 O          60.4635   86.6821    9.9796 O.2     1  UNL1       -0.2732
      4 N          62.2481   85.6855    9.1138 N.am    1  UNL1       -0.2969
      5 C          63.3222   84.6462    9.2404 C.3     1  UNL1        0.1488
      6 C          64.4820   83.7034    9.1126 C.2     1  UNL1        0.2439
      7 O          64.2523   83.0161   10.4259 O.2     1  UNL1       -0.2731
      8 N          65.6853   82.8913    8.7352 N.am    1  UNL1       -0.2682
      9 C          65.6844   82.0496    9.9767 C.3     1  UNL1        0.1154
     10 C          66.8888   82.2393    8.1217 C.3     1  UNL1        0.1794
     11 C          68.0490   81.7708    7.2944 C.2     1  UNL1        0.2463
     12 O          68.4976   80.7161    8.2620 O.2     1  UNL1       -0.2730
     13 N          69.1240   81.5030    6.2830 N.am    1  UNL1       -0.2698
     14 C          69.7768   80.3973    7.0584 C.3     1  UNL1        0.1153
     15 C          70.0748   81.4452    5.1243 C.3     1  UNL1        0.1518
     16 C          70.8671   81.5998    3.8601 C.2     1  UNL1        0.2409
     17 O          71.8514   80.5125    4.1748 O.2     1  UNL1       -0.2733
     18 N          71.4723   81.9611    2.5360 N.am    1  UNL1       -0.2970
     19 C          71.8686   82.5160    1.1999 C.3     1  UNL1        0.1487
     20 C          72.0415   83.2445   -0.0998 C.2     1  UNL1        0.2439
     21 O          73.2490   82.4699   -0.5379 O.2     1  UNL1       -0.2731
     22 N          71.9848   84.1203   -1.3163 N.am    1  UNL1       -0.2699
     23 C          73.1816   83.5121   -1.9856 C.3     1  UNL1        0.1153
     24 C          71.7007   85.1116   -2.4055 C.3     1  UNL1        0.1518
     25 C          71.1993   86.1828   -3.3282 C.2     1  UNL1        0.2409
     26 O          72.2467   85.9668   -4.3800 O.2     1  UNL1       -0.2733
     27 N          70.4988   87.2950   -4.0508 N.am    1  UNL1       -0.2970
     28 C          69.6244   88.4081   -4.5474 C.3     1  UNL1        0.1486
     29 C          70.3724   88.6152   -5.8309 C.3     1  UNL1        0.0312
     30 C          68.6079   89.4818   -4.7999 C.2     1  UNL1        0.2406
     31 O          69.1626   89.8930   -6.1315 O.2     1  UNL1       -0.2733
     32 N          67.4859   90.4773   -4.7992 N.am    1  UNL1       -0.2970
     33 C          66.2990   91.3587   -4.5455 C.3     1  UNL1        0.1489
     34 C          66.4147   92.1268   -5.8288 C.3     1  UNL1        0.0312
     35 C          65.0900   92.0941   -4.0478 C.2     1  UNL1        0.2439
     36 O          64.9760   93.0019   -5.2364 O.2     1  UNL1       -0.2731
     37 N          63.9028   92.6569   -3.3241 N.am    1  UNL1       -0.2699
     38 C          63.5630   93.6717   -4.3752 C.3     1  UNL1        0.1153
     39 C          62.7801   93.0268   -2.4007 C.3     1  UNL1        0.1520
     40 C          61.7627   93.1903   -1.3107 C.2     1  UNL1        0.2441
     41 O          61.0160   94.3065   -1.9789 O.2     1  UNL1       -0.2731
     42 N          60.8871   93.1417   -0.0937 N.am    1  UNL1       -0.2699
     43 C          59.9740   94.2487   -0.5306 C.3     1  UNL1        0.1153
     44 C          60.1851   92.8826    1.2064 C.3     1  UNL1        0.1520
     45 C          59.6821   92.4225    2.5425 C.2     1  UNL1        0.2441
     46 O          58.5400   93.3927    2.6068 O.2     1  UNL1       -0.2731
     47 N          59.3963   91.7778    3.8663 N.am    1  UNL1       -0.2699
     48 C          58.1998   92.6255    4.1823 C.3     1  UNL1        0.1153
     49 C          59.3379   90.9720    5.1302 C.3     1  UNL1        0.1520
     50 C          59.5091   90.0342    6.2883 C.2     1  UNL1        0.2441
     51 O          58.3340   90.5504    7.0648 O.2     1  UNL1       -0.2731
     52 N          59.9036   88.9982    7.2988 N.am    1  UNL1       -0.2680
     53 C          58.8036   89.3175    8.2673 C.3     1  UNL1        0.1154
     54 H          61.8186   85.4817    9.9759 H       1  UNL1        0.1499
     55 H          72.1938   81.2925    2.5774 H       1  UNL1        0.1499
     56 H          71.0988   87.2920   -4.8313 H       1  UNL1        0.1499
     57 H          67.7100   90.8714   -5.6732 H       1  UNL1        0.1499
     58 C          59.5221   88.0123    9.2508 C.3     1  UNL1        0.1377
     59 O          58.3450   87.0846    9.3112 O.3     1  UNL1       -0.3822
     60 H          57.8120   87.2892   10.0954 H       1  UNL1        0.2104
     61 C          59.7139   89.0509   10.3160 C.3     1  UNL1        0.0334
     62 C          59.8185   90.4995    9.9410 C.3     1  UNL1        0.0029
     63 C          59.8012   88.6408   11.7562 C.3     1  UNL1        0.0282
     64 C          63.5444   89.0660   13.0042 C.3     1  UNL1        0.0303
     65 C          62.2105   89.3761   12.3921 C.2     1  UNL1       -0.0304
     66 C          61.1350   88.3307   12.3683 C.2     1  UNL1       -0.0306
     67 C          73.0433   81.6028    1.0090 C.3     1  UNL1        0.0269
     68 C          73.6304   81.4119   -0.3580 C.3     1  UNL1        0.0022
     69 C          73.6307   80.8806    2.1852 C.3     1  UNL1        0.0022
     70 C          58.1303   91.6665    5.6864 C.3     1  UNL1        0.0271
     71 C          58.2261   93.0952    6.1333 C.3     1  UNL1        0.0022
     72 C          56.8268   90.9323    5.7956 C.3     1  UNL1        0.0022
     73 C          62.8722   84.1380   10.5779 C.3     1  UNL1        0.0290
     74 C          62.9050   85.0430   11.7738 C.3     1  UNL1        0.0023
     75 C          70.9084   80.3286    5.6795 C.3     1  UNL1        0.0292
     76 C          72.2254   80.6284    6.3316 C.3     1  UNL1        0.0021
     77 C          73.2748   79.5609    6.4286 C.3     1  UNL1        0.0001
     78 C          72.4933   81.9959    6.8869 C.3     1  UNL1        0.0001
     79 C          72.8434   84.6920   -3.2819 C.3     1  UNL1        0.0292
     80 C          72.5734   84.0699   -4.6198 C.3     1  UNL1        0.0021
     81 C          73.4299   82.9393   -5.1079 C.3     1  UNL1        0.0001
     82 C          71.4468   84.5783   -5.4697 C.3     1  UNL1        0.0001
     83 C          62.2269   94.1119   -3.2761 C.3     1  UNL1        0.0292
     84 C          60.8857   93.9407   -3.9257 C.3     1  UNL1        0.0021
     85 C          60.3358   95.0226   -4.8072 C.3     1  UNL1        0.0001
     86 C          60.0945   92.6876   -3.6939 C.3     1  UNL1        0.0001
     87 C          59.1386   93.9403    1.0166 C.3     1  UNL1        0.0292
     88 C          59.5017   95.3888    1.1589 C.3     1  UNL1        0.0021
     89 C          60.5870   95.9771    0.3069 C.3     1  UNL1        0.0001
     90 C          58.7795   96.2488    2.1533 C.3     1  UNL1        0.0001
@<TRIPOS>BOND
     1    64    65    1
     2    65    66    2
     3    66    63    1
     4    63    61    1
     5    61    62    1
     6    61    58    1
     7    58    59    1
     8    58     1    1
     9     1     2    1
    10     2     3    2
    11     2     4   am
    12     4     5    1
    13     5    73    1
    14    73    74    1
    15     5     6    1
    16     6     7    2
    17     6     8   am
    18     8     9    1
    19     8    10    1
    20    10    11    1
    21    11    12    2
    22    11    13   am
    23    13    14    1
    24    13    15    1
    25    15    75    1
    26    75    76    1
    27    76    77    1
    28    76    78    1
    29    15    16    1
    30    16    17    2
    31    16    18   am
    32    18    19    1
    33    19    67    1
    34    67    68    1
    35    67    69    1
    36    19    20    1
    37    20    21    2
    38    20    22   am
    39    22    23    1
    40    22    24    1
    41    24    79    1
    42    79    80    1
    43    80    81    1
    44    80    82    1
    45    24    25    1
    46    25    26    2
    47    25    27   am
    48    27    28    1
    49    28    29    1
    50    28    30    1
    51    30    31    2
    52    30    32   am
    53    32    33    1
    54    33    34    1
    55    33    35    1
    56    35    36    2
    57    35    37   am
    58    37    38    1
    59    37    39    1
    60    39    83    1
    61    83    84    1
    62    84    85    1
    63    84    86    1
    64    39    40    1
    65    40    41    2
    66    40    42   am
    67    42    43    1
    68    42    44    1
    69    44    87    1
    70    87    88    1
    71    88    89    1
    72    88    90    1
    73    44    45    1
    74    45    46    2
    75    45    47   am
    76    47    48    1
    77    47    49    1
    78    49    70    1
    79    70    71    1
    80    70    72    1
    81    49    50    1
    82    50    51    2
    83    50    52   am
    84    52    53    1
    85     1    52    1
    86    59    60    1
    87     4    54    1
    88    18    55    1
    89    27    56    1
    90    32    57    1
@<TRIPOS>MOLECULE
*****
 90 90 0 0 0
SMALL
GASTEIGER

@<TRIPOS>ATOM
      1 C          61.6734   86.4473    8.2759 C.3     1  UNL1        0.1789
      2 C          60.8034   87.5121    7.6765 C.2     1  UNL1        0.2433
      3 O          59.8460   87.5796    8.8293 O.2     1  UNL1       -0.2732
      4 N          60.1155   88.5641    6.8580 N.am    1  UNL1       -0.2969
      5 C          59.6344   89.5653    5.8500 C.3     1  UNL1        0.1488
      6 C          59.3776   90.4795    4.6887 C.2     1  UNL1        0.2439
      7 O          58.1491   91.1111    5.2734 O.2     1  UNL1       -0.2731
      8 N          59.3543   91.2735    3.4163 N.am    1  UNL1       -0.2682
      9 C          58.1214   92.0561    3.7592 C.3     1  UNL1        0.1154
     10 C          59.5654   91.9188    2.0788 C.3     1  UNL1        0.1794
     11 C          60.0033   92.3920    0.7244 C.2     1  UNL1        0.2463
     12 O          58.8938   93.3872    0.5555 O.2     1  UNL1       -0.2730
     13 N          60.6522   92.6759   -0.5979 N.am    1  UNL1       -0.2698
     14 C          59.6660   93.7251   -1.0181 C.3     1  UNL1        0.1153
     15 C          61.4884   92.7605   -1.8402 C.3     1  UNL1        0.1518
     16 C          62.4820   92.6425   -2.9578 C.2     1  UNL1        0.2409
     17 O          61.8437   93.6853   -3.8267 O.2     1  UNL1       -0.2733
     18 N          63.5969   92.3262   -3.9101 N.am    1  UNL1       -0.2970
     19 C          64.7929   91.8231   -4.6628 C.3     1  UNL1        0.1487
     20 C          66.0267   91.1514   -5.1887 C.2     1  UNL1        0.2439
     21 O          66.0622   91.9108   -6.4818 O.2     1  UNL1       -0.2731
     22 N          67.2537   90.3353   -5.4688 N.am    1  UNL1       -0.2699
     23 C          67.5225   90.9396   -6.8151 C.3     1  UNL1        0.1153
     24 C          68.4296   89.4044   -5.4929 C.3     1  UNL1        0.1518
     25 C          69.5119   88.3922   -5.2602 C.2     1  UNL1        0.2409
     26 O          70.2100   88.6271   -6.5669 O.2     1  UNL1       -0.2733
     27 N          70.4614   87.3354   -4.7791 N.am    1  UNL1       -0.2970
     28 C          71.2439   86.2722   -4.0669 C.3     1  UNL1        0.1486
     29 C          72.2714   86.1039   -5.1467 C.3     1  UNL1        0.0312
     30 C          71.8311   85.2409   -3.1495 C.2     1  UNL1        0.2406
     31 O          72.9702   84.8766   -4.0548 O.2     1  UNL1       -0.2733
     32 N          72.2017   84.2789   -2.0599 N.am    1  UNL1       -0.2970
     33 C          72.3424   83.4209   -0.8376 C.3     1  UNL1        0.1489
     34 C          73.5787   82.7106   -1.3034 C.3     1  UNL1        0.0312
     35 C          72.2480   82.6980    0.4734 C.2     1  UNL1        0.2439
     36 O          73.4663   81.8503    0.2567 O.2     1  UNL1       -0.2731
     37 N          71.9220   82.1362    1.8254 N.am    1  UNL1       -0.2699
     38 C          73.0784   81.1817    1.8658 C.3     1  UNL1        0.1153
     39 C          71.3763   81.7559    3.1698 C.3     1  UNL1        0.1520
     40 C          70.6303   81.5708    4.4579 C.2     1  UNL1        0.2441
     41 O          71.5411   80.5088    4.9988 O.2     1  UNL1       -0.2731
     42 N          69.7112   81.5876    5.6433 N.am    1  UNL1       -0.2699
     43 C          70.4473   80.5288    6.4095 C.3     1  UNL1        0.1153
     44 C          68.6522   81.8057    6.6830 C.3     1  UNL1        0.1520
     45 C          67.4915   82.2172    7.5394 C.2     1  UNL1        0.2441
     46 O          67.8055   81.2782    8.6660 O.2     1  UNL1       -0.2731
     47 N          66.2711   82.8073    8.1816 N.am    1  UNL1       -0.2699
     48 C          66.3532   81.9804    9.4303 C.3     1  UNL1        0.1153
     49 C          65.0351   83.5546    8.5864 C.3     1  UNL1        0.1520
     50 C          63.8281   84.4321    8.7392 C.2     1  UNL1        0.2441
     51 O          63.4458   83.9141   10.0940 O.2     1  UNL1       -0.2731
     52 N          62.6939   85.4081    8.6344 N.am    1  UNL1       -0.2680
     53 C          62.0959   85.0756    9.9693 C.3     1  UNL1        0.1154
     54 H          59.4013   88.7397    7.5125 H       1  UNL1        0.1499
     55 H          63.3171   92.9712   -4.5992 H       1  UNL1        0.1499
     56 H          71.0382   87.3577   -5.5767 H       1  UNL1        0.1499
     57 H          72.9956   83.9198   -2.5182 H       1  UNL1        0.1499
     58 C          60.8814   86.3123    9.5426 C.3     1  UNL1        0.1377
     59 O          59.4953   85.7403    9.5031 O.3     1  UNL1       -0.3822
     60 H          59.1269   85.7233   10.4003 H       1  UNL1        0.2104
     61 C          61.4754   86.7494   10.8487 C.3     1  UNL1        0.0334
     62 C          60.9752   86.1608   12.1345 C.3     1  UNL1        0.0029
     63 C          62.5697   87.7752   10.8691 C.3     1  UNL1        0.0282
     64 C          62.9731   91.5331   12.0798 C.3     1  UNL1        0.0303
     65 C          63.1365   90.2781   11.2746 C.2     1  UNL1       -0.0304
     66 C          62.4064   89.0302   11.6743 C.2     1  UNL1       -0.0306
     67 C          64.5939   92.7103   -5.8560 C.3     1  UNL1        0.0269
     68 C          64.8767   94.1798   -5.7535 C.3     1  UNL1        0.0022
     69 C          64.1120   92.1278   -7.1516 C.3     1  UNL1        0.0022
     70 C          64.8822   82.8697    9.9121 C.3     1  UNL1        0.0271
     71 C          65.3681   83.5398   11.1631 C.3     1  UNL1        0.0022
     72 C          64.2434   81.5145    9.9868 C.3     1  UNL1        0.0022
     73 C          58.4547   90.0232    6.6554 C.3     1  UNL1        0.0290
     74 C          58.5667   90.1459    8.1462 C.3     1  UNL1        0.0023
     75 C          60.6612   93.8257   -2.4967 C.3     1  UNL1        0.0292
     76 C          61.2474   95.1838   -2.7452 C.3     1  UNL1        0.0021
     77 C          61.5799   95.6128   -4.1436 C.3     1  UNL1        0.0001
     78 C          61.5010   96.1132   -1.5954 C.3     1  UNL1        0.0001
     79 C          68.9220   89.8316   -6.8438 C.3     1  UNL1        0.0292
     80 C          69.7570   91.0702   -6.9806 C.3     1  UNL1        0.0021
     81 C          69.1487   92.3286   -7.5249 C.3     1  UNL1        0.0001
     82 C          71.2004   91.0503   -6.5730 C.3     1  UNL1        0.0001
     83 C          72.4288   80.7290    3.4658 C.3     1  UNL1        0.0292
     84 C          73.2159   80.8078    4.7404 C.3     1  UNL1        0.0021
     85 C          73.6084   79.5507    5.4584 C.3     1  UNL1        0.0001
     86 C          73.6106   82.1436    5.2968 C.3     1  UNL1        0.0001
     87 C          69.1869   80.7884    7.6468 C.3     1  UNL1        0.0292
     88 C          70.2439   79.8199    7.2054 C.3     1  UNL1        0.0021
     89 C          71.4420   79.5705    8.0728 C.3     1  UNL1        0.0001
     90 C          70.1029   79.1009    5.8965 C.3     1  UNL1        0.0001
@<TRIPOS>BOND
     1    64    65    1
     2    65    66    2
     3    66    63    1
     4    63    61    1
     5    61    62    1
     6    61    58    1
     7    58    59    1
     8    58     1    1
     9     1     2    1
    10     2     3    2
    11     2     4   am
    12     4     5    1
    13     5    73    1
    14    73    74    1
    15     5     6    1
    16     6     7    2
    17     6     8   am
    18     8     9    1
    19     8    10    1
    20    10    11    1
    21    11    12    2
    22    11    13   am
    23    13    14    1
    24    13    15    1
    25    15    75    1
    26    75    76    1
    27    76    77    1
    28    76    78    1
    29    15    16    1
    30    16    17    2
    31    16    18   am
    32    18    19    1
    33    19    67    1
    34    67    68    1
    35    67    69    1
    36    19    20    1
    37    20    21    2
    38    20    22   am
    39    22    23    1
    40    22    24    1
    41    24    79    1
    42    79    80    1
    43    80    81    1
    44    80    82    1
    45    24    25    1
    46    25    26    2
    47    25    27   am
    48    27    28    1
    49    28    29    1
    50    28    30    1
    51    30    31    2
    52    30    32   am
    53    32    33    1
    54    33    34    1
    55    33    35    1
    56    35    36    2
    57    35    37   am
    58    37    38    1
    59    37    39    1
    60    39    83    1
    61    83    84    1
    62    84    85    1
    63    84    86    1
    64    39    40    1
    65    40    41    2
    66    40    42   am
    67    42    43    1
    68    42    44    1
    69    44    87    1
    70    87    88    1
    71    88    89    1
    72    88    90    1
    73    44    45    1
    74    45    46    2
    75    45    47   am
    76    47    48    1
    77    47    49    1
    78    49    70    1
    79    70    71    1
    80    70    72    1
    81    49    50    1
    82    50    51    2
    83    50    52   am
    84    52    53    1
    85     1    52    1
    86    59    60    1
    87     4    54    1
    88    18    55    1
    89    27    56    1
    90    32    57    1
@<TRIPOS>MOLECULE
*****
 90 90 0 0 0
SMALL
GASTEIGER

@<TRIPOS>ATOM
      1 C          60.2765   88.9069    7.4518 C.3     1  UNL1        0.1789
      2 C          59.8988   89.8844    6.3785 C.2     1  UNL1        0.2433
      3 O          58.7216   90.4545    7.1128 O.2     1  UNL1       -0.2732
      4 N          59.7448   90.7534    5.1657 N.am    1  UNL1       -0.2969
      5 C          59.8202   91.4827    3.8571 C.3     1  UNL1        0.1488
      6 C          60.1223   92.0458    2.4999 C.2     1  UNL1        0.2439
      7 O          58.9876   93.0268    2.4968 O.2     1  UNL1       -0.2731
      8 N          60.6400   92.4224    1.1434 N.am    1  UNL1       -0.2682
      9 C          59.6038   93.4750    0.8825 C.3     1  UNL1        0.1154
     10 C          61.3548   92.5990   -0.1634 C.3     1  UNL1        0.1794
     11 C          62.2408   92.5690   -1.3734 C.2     1  UNL1        0.2463
     12 O          61.5088   93.6494   -2.1129 O.2     1  UNL1       -0.2730
     13 N          63.2660   92.3335   -2.4429 N.am    1  UNL1       -0.2698
     14 C          62.7289   93.3692   -3.3857 C.3     1  UNL1        0.1153
     15 C          64.3932   91.9012   -3.3331 C.3     1  UNL1        0.1518
     16 C          65.5818   91.2876   -4.0119 C.2     1  UNL1        0.2409
     17 O          65.4849   92.1245   -5.2530 O.2     1  UNL1       -0.2733
     18 N          66.7887   90.5150   -4.4547 N.am    1  UNL1       -0.2970
     19 C          67.9705   89.6111   -4.6457 C.3     1  UNL1        0.1487
     20 C          69.0844   88.6087   -4.5777 C.2     1  UNL1        0.2439
     21 O          69.6534   88.9363   -5.9264 O.2     1  UNL1       -0.2731
     22 N          70.0900   87.5441   -4.2534 N.am    1  UNL1       -0.2699
     23 C          70.8502   87.6693   -5.5404 C.3     1  UNL1        0.1153
     24 C          70.9512   86.4557   -3.6844 C.3     1  UNL1        0.1518
     25 C          71.6366   85.3828   -2.8913 C.2     1  UNL1        0.2409
     26 O          72.6909   85.0971   -3.9194 O.2     1  UNL1       -0.2733
     27 N          72.1217   84.3642   -1.9028 N.am    1  UNL1       -0.2970
     28 C          72.3887   83.4367   -0.7545 C.3     1  UNL1        0.1486
     29 C          73.5860   82.7811   -1.3763 C.3     1  UNL1        0.0312
     30 C          72.4282   82.6340    0.5120 C.2     1  UNL1        0.2406
     31 O          73.6329   81.8256    0.1310 O.2     1  UNL1       -0.2733
     32 N          72.2386   81.9848    1.8509 N.am    1  UNL1       -0.2970
     33 C          71.8268   81.5128    3.2138 C.3     1  UNL1        0.1489
     34 C          72.9173   80.4913    3.3465 C.3     1  UNL1        0.0312
     35 C          71.2077   81.2350    4.5516 C.2     1  UNL1        0.2439
     36 O          72.1804   80.1608    4.9386 O.2     1  UNL1       -0.2731
     37 N          70.4037   81.1614    5.8158 N.am    1  UNL1       -0.2699
     38 C          71.2236   80.0732    6.4430 C.3     1  UNL1        0.1153
     39 C          69.4439   81.2947    6.9607 C.3     1  UNL1        0.1520
     40 C          68.3628   81.6301    7.9449 C.2     1  UNL1        0.2441
     41 O          68.7946   80.6310    8.9770 O.2     1  UNL1       -0.2731
     42 N          67.1996   82.1554    8.7331 N.am    1  UNL1       -0.2699
     43 C          67.4103   81.2561    9.9150 C.3     1  UNL1        0.1153
     44 C          65.9963   82.8517    9.2965 C.3     1  UNL1        0.1520
     45 C          64.7965   83.6937    9.6148 C.2     1  UNL1        0.2441
     46 O          64.5504   83.0870   10.9643 O.2     1  UNL1       -0.2731
     47 N          63.6435   84.6512    9.6765 N.am    1  UNL1       -0.2699
     48 C          63.1782   84.2264   11.0378 C.3     1  UNL1        0.1153
     49 C          62.5789   85.6894    9.4795 C.3     1  UNL1        0.1520
     50 C          61.6413   86.7709    9.0308 C.2     1  UNL1        0.2441
     51 O          60.7953   86.7491   10.2693 O.2     1  UNL1       -0.2731
     52 N          60.8645   87.8564    8.3467 N.am    1  UNL1       -0.2680
     53 C          59.8708   88.0410    9.4551 C.3     1  UNL1        0.1154
     54 H          58.9530   91.2360    5.4963 H       1  UNL1        0.1499
     55 H          66.8758   90.9678   -5.3246 H       1  UNL1        0.1499
     56 H          72.8742   84.0495   -2.4542 H       1  UNL1        0.1499
     57 H          73.0056   81.3733    1.7679 H       1  UNL1        0.1499
     58 C          59.1711   89.2912    8.3901 C.3     1  UNL1        0.1377
     59 O          57.7604   88.8733    8.0983 O.3     1  UNL1       -0.3822
     60 H          57.1747   89.2009    8.7987 H       1  UNL1        0.2104
     61 C          59.4765   90.0934    9.6202 C.3     1  UNL1        0.0334
     62 C          60.8828   90.5352    9.8976 C.3     1  UNL1        0.0029
     63 C          58.3754   90.4539   10.5730 C.3     1  UNL1        0.0282
     64 C          59.6125   88.9384   14.0260 C.3     1  UNL1        0.0303
     65 C          59.6371   89.5325   12.6488 C.2     1  UNL1       -0.0304
     66 C          58.3508   89.8598   11.9501 C.2     1  UNL1       -0.0306
     67 C          68.3278   90.1293   -6.0073 C.3     1  UNL1        0.0269
     68 C          69.7013   90.6739   -6.2659 C.3     1  UNL1        0.0022
     69 C          67.3115   90.1028   -7.1102 C.3     1  UNL1        0.0022
     70 C          61.9113   85.4620   10.8033 C.3     1  UNL1        0.0271
     71 C          61.3133   84.1237   11.1218 C.3     1  UNL1        0.0022
     72 C          61.8416   86.5730   11.8088 C.3     1  UNL1        0.0022
     73 C          58.6281   92.3567    4.1119 C.3     1  UNL1        0.0290
     74 C          57.4025   91.7832    4.7593 C.3     1  UNL1        0.0023
     75 C          64.0703   92.8548   -4.4451 C.3     1  UNL1        0.0292
     76 C          64.5531   94.2734   -4.3805 C.3     1  UNL1        0.0021
     77 C          64.9290   94.8784   -3.0604 C.3     1  UNL1        0.0001
     78 C          64.6600   95.0872   -5.6361 C.3     1  UNL1        0.0001
     79 C          71.8751   86.3739   -4.8632 C.3     1  UNL1        0.0292
     80 C          71.6271   85.3615   -5.9418 C.3     1  UNL1        0.0021
     81 C          70.3749   84.5359   -5.9221 C.3     1  UNL1        0.0001
     82 C          72.6313   85.1746   -7.0403 C.3     1  UNL1        0.0001
     83 C          70.0812   80.2318    7.8057 C.3     1  UNL1        0.0292
     84 C          71.2559   80.5693    8.6754 C.3     1  UNL1        0.0021
     85 C          71.9815   79.4818    9.4108 C.3     1  UNL1        0.0001
     86 C          71.7049   81.9942    8.8098 C.3     1  UNL1        0.0001
     87 C          65.9783   82.0848   10.5855 C.3     1  UNL1        0.0292
     88 C          64.6997   81.4732   11.0765 C.3     1  UNL1        0.0021
     89 C          64.4024   81.4354   12.5462 C.3     1  UNL1        0.0001
     90 C          63.7184   80.8995   10.0978 C.3     1  UNL1        0.0001
@<TRIPOS>BOND
     1    64    65    1
     2    65    66    2
     3    66    63    1
     4    63    61    1
     5    61    62    1
     6    61    58    1
     7    58    59    1
     8    58     1    1
     9     1     2    1
    10     2     3    2
    11     2     4   am
    12     4     5    1
    13     5    73    1
    14    73    74    1
    15     5     6    1
    16     6     7    2
    17     6     8   am
    18     8     9    1
    19     8    10    1
    20    10    11    1
    21    11    12    2
    22    11    13   am
    23    13    14    1
    24    13    15    1
    25    15    75    1
    26    75    76    1
    27    76    77    1
    28    76    78    1
    29    15    16    1
    30    16    17    2
    31    16    18   am
    32    18    19    1
    33    19    67    1
    34    67    68    1
    35    67    69    1
    36    19    20    1
    37    20    21    2
    38    20    22   am
    39    22    23    1
    40    22    24    1
    41    24    79    1
    42    79    80    1
    43    80    81    1
    44    80    82    1
    45    24    25    1
    46    25    26    2
    47    25    27   am
    48    27    28    1
    49    28    29    1
    50    28    30    1
    51    30    31    2
    52    30    32   am
    53    32    33    1
    54    33    34    1
    55    33    35    1
    56    35    36    2
    57    35    37   am
    58    37    38    1
    59    37    39    1
    60    39    83    1
    61    83    84    1
    62    84    85    1
    63    84    86    1
    64    39    40    1
    65    40    41    2
    66    40    42   am
    67    42    43    1
    68    42    44    1
    69    44    87    1
    70    87    88    1
    71    88    89    1
    72    88    90    1
    73    44    45    1
    74    45    46    2
    75    45    47   am
    76    47    48    1
    77    47    49    1
    78    49    70    1
    79    70    71    1
    80    70    72    1
    81    49    50    1
    82    50    51    2
    83    50    52   am
    84    52    53    1
    85     1    52    1
    86    59    60    1
    87     4    54    1
    88    18    55    1
    89    27    56    1
    90    32    57    1
