@<TRIPOS>MOLECULE
*****
 22 24 0 0 0
SMALL
GASTEIGER

@<TRIPOS>ATOM
      1 C          65.9598   92.3340   13.4285 C.3     1  UNL1        0.0207
      2 C          65.3125   92.4406   12.0796 C.3     1  UNL1        0.0274
      3 C          64.2471   91.4634   11.6795 C.ar    1  UNL1       -0.0258
      4 C          63.5999   91.5701   10.3306 C.ar    1  UNL1       -0.0046
      5 C          62.5345   90.5929    9.9306 C.ar    1  UNL1       -0.0003
      6 C          62.1163   89.5091   10.8795 C.ar    1  UNL1       -0.0003
      7 C          62.7635   89.4024   12.2284 C.ar    1  UNL1       -0.0043
      8 C          63.8289   90.3796   12.6284 C.ar    1  UNL1       -0.0224
      9 C          64.4762   90.2730   13.9775 C.3     1  UNL1        0.0443
     10 C          65.5416   91.2501   14.3775 C.3     1  UNL1        0.0104
     11 C          64.0580   89.1891   14.9264 C.ar    1  UNL1       -0.0175
     12 C          63.2982   89.5354   16.1726 C.ar    1  UNL1       -0.0030
     13 C          62.8800   88.4516   17.1215 C.ar    1  UNL1        0.0119
     14 C          63.2217   87.0215   16.8242 C.ar    1  UNL1        0.0682
     15 CL         62.8035   85.9377   17.7732 Cl      1  UNL1       -0.0814
     16 C          63.9815   86.6753   15.5781 C.ar    1  UNL1        0.0679
     17 CL         64.3231   85.2453   15.2809 Cl      1  UNL1       -0.0814
     18 C          64.3996   87.7591   14.6292 C.ar    1  UNL1        0.0083
     19 C          67.0252   93.3112   13.8286 C.3     1  UNL1        0.0689
     20 C          68.7545   93.1496   15.7607 C.3     1  UNL1        0.0859
     21 N          68.3373   92.8145   14.3595 N.3     1  UNL1       -0.2963
     22 H          68.3151   91.7969   14.2942 H       1  UNL1        0.1233
@<TRIPOS>BOND
     1    20    21    1
     2    21    19    1
     3     1    19    1
     4     1     2    1
     5     2     3    1
     6     3     4   ar
     7     4     5   ar
     8     5     6   ar
     9     6     7   ar
    10     7     8   ar
    11     8     9    1
    12     9    11    1
    13    11    12   ar
    14    12    13   ar
    15    13    14   ar
    16    14    15    1
    17    14    16   ar
    18    16    17    1
    19    16    18   ar
    20     9    10    1
    21    10     1    1
    22     8     3   ar
    23    18    11   ar
    24    21    22    1
@<TRIPOS>MOLECULE
*****
 22 24 0 0 0
SMALL
GASTEIGER

@<TRIPOS>ATOM
      1 C          62.4514   89.6023   11.1941 C.3     1  UNL1        0.0207
      2 C          61.4792   89.8672   10.0830 C.3     1  UNL1        0.0274
      3 C          60.8670   88.7215    9.3329 C.ar    1  UNL1       -0.0258
      4 C          59.8947   88.9865    8.2219 C.ar    1  UNL1       -0.0046
      5 C          59.2825   87.8408    7.4718 C.ar    1  UNL1       -0.0003
      6 C          59.6427   86.4301    7.8328 C.ar    1  UNL1       -0.0003
      7 C          60.6150   86.1652    8.9438 C.ar    1  UNL1       -0.0043
      8 C          61.2271   87.3108    9.6939 C.ar    1  UNL1       -0.0224
      9 C          62.1994   87.0459   10.8050 C.3     1  UNL1        0.0443
     10 C          62.8116   88.1916   11.5550 C.3     1  UNL1        0.0104
     11 C          62.5596   85.6352   11.1659 C.ar    1  UNL1       -0.0175
     12 C          63.1660   84.7290   10.1358 C.ar    1  UNL1       -0.0030
     13 C          63.5261   83.3183   10.4968 C.ar    1  UNL1        0.0119
     14 C          63.2799   82.8139   11.8878 C.ar    1  UNL1        0.0682
     15 CL         63.6400   81.4032   12.2488 Cl      1  UNL1       -0.0814
     16 C          62.6735   83.7201   12.9179 C.ar    1  UNL1        0.0679
     17 CL         62.4273   83.2157   14.3089 Cl      1  UNL1       -0.0814
     18 C          62.3134   85.1308   12.5569 C.ar    1  UNL1        0.0083
     19 C          63.0636   90.7480   11.9442 C.3     1  UNL1        0.0689
     20 C          64.5517   90.5480   14.0644 C.3     1  UNL1        0.0859
     21 N          63.1959   90.6820   13.4369 N.3     1  UNL1       -0.2963
     22 H          62.7833   91.5381   13.8072 H       1  UNL1        0.1233
@<TRIPOS>BOND
     1    20    21    1
     2    21    19    1
     3     1    19    1
     4     1     2    1
     5     2     3    1
     6     3     4   ar
     7     4     5   ar
     8     5     6   ar
     9     6     7   ar
    10     7     8   ar
    11     8     9    1
    12     9    11    1
    13    11    12   ar
    14    12    13   ar
    15    13    14   ar
    16    14    15    1
    17    14    16   ar
    18    16    17    1
    19    16    18   ar
    20     9    10    1
    21    10     1    1
    22     8     3   ar
    23    18    11   ar
    24    21    22    1
@<TRIPOS>MOLECULE
*****
 22 24 0 0 0
SMALL
GASTEIGER

@<TRIPOS>ATOM
      1 C          60.2850   87.6373    8.6894 C.3     1  UNL1        0.0207
      2 C          60.6290   88.9898    9.2391 C.3     1  UNL1        0.0274
      3 C          61.5868   89.1114   10.3872 C.ar    1  UNL1       -0.0258
      4 C          61.9308   90.4639   10.9369 C.ar    1  UNL1       -0.0046
      5 C          62.8885   90.5855   12.0849 C.ar    1  UNL1       -0.0003
      6 C          63.5021   89.3544   12.6833 C.ar    1  UNL1       -0.0003
      7 C          63.1581   88.0019   12.1336 C.ar    1  UNL1       -0.0043
      8 C          62.2004   87.8804   10.9855 C.ar    1  UNL1       -0.0224
      9 C          61.8563   86.5278   10.4358 C.3     1  UNL1        0.0443
     10 C          60.8986   86.4063    9.2878 C.3     1  UNL1        0.0104
     11 C          62.4700   85.2967   11.0341 C.ar    1  UNL1       -0.0175
     12 C          63.3198   84.3953   10.1883 C.ar    1  UNL1       -0.0030
     13 C          63.9334   83.1643   10.7866 C.ar    1  UNL1        0.0119
     14 C          63.6973   82.8347   12.2308 C.ar    1  UNL1        0.0682
     15 CL         64.3109   81.6037   12.8292 Cl      1  UNL1       -0.0814
     16 C          62.8475   83.7361   13.0766 C.ar    1  UNL1        0.0679
     17 CL         62.6114   83.4065   14.5208 Cl      1  UNL1       -0.0814
     18 C          62.2339   84.9671   12.4783 C.ar    1  UNL1        0.0083
     19 C          59.3273   87.5157    7.5413 C.3     1  UNL1        0.0689
     20 C          59.3297   89.6895    6.1186 C.3     1  UNL1        0.0859
     21 N          58.6161   88.7316    7.0259 N.3     1  UNL1       -0.2963
     22 H          57.7963   88.4000    6.5177 H       1  UNL1        0.1233
@<TRIPOS>BOND
     1    20    21    1
     2    21    19    1
     3     1    19    1
     4     1     2    1
     5     2     3    1
     6     3     4   ar
     7     4     5   ar
     8     5     6   ar
     9     6     7   ar
    10     7     8   ar
    11     8     9    1
    12     9    11    1
    13    11    12   ar
    14    12    13   ar
    15    13    14   ar
    16    14    15    1
    17    14    16   ar
    18    16    17    1
    19    16    18   ar
    20     9    10    1
    21    10     1    1
    22     8     3   ar
    23    18    11   ar
    24    21    22    1
@<TRIPOS>MOLECULE
*****
 22 24 0 0 0
SMALL
GASTEIGER

@<TRIPOS>ATOM
      1 C          63.8889   85.1803   14.0981 C.3     1  UNL1        0.0207
      2 C          64.4079   86.4574   14.6894 C.3     1  UNL1        0.0274
      3 C          64.1183   87.7670   14.0176 C.ar    1  UNL1       -0.0258
      4 C          64.6373   89.0441   14.6088 C.ar    1  UNL1       -0.0046
      5 C          64.3478   90.3536   13.9370 C.ar    1  UNL1       -0.0003
      6 C          63.5393   90.3860   12.6740 C.ar    1  UNL1       -0.0003
      7 C          63.0203   89.1089   12.0827 C.ar    1  UNL1       -0.0043
      8 C          63.3099   87.7994   12.7545 C.ar    1  UNL1       -0.0224
      9 C          62.7909   86.5222   12.1633 C.3     1  UNL1        0.0443
     10 C          63.0804   85.2127   12.8351 C.3     1  UNL1        0.0104
     11 C          61.9824   86.5546   10.9002 C.ar    1  UNL1       -0.0175
     12 C          60.6996   87.3305   10.8506 C.ar    1  UNL1       -0.0030
     13 C          59.8911   87.3629    9.5875 C.ar    1  UNL1        0.0119
     14 C          60.3654   86.6194    8.3741 C.ar    1  UNL1        0.0682
     15 CL         59.5569   86.6517    7.1111 Cl      1  UNL1       -0.0814
     16 C          61.6482   85.8435    8.4238 C.ar    1  UNL1        0.0679
     17 CL         62.1225   85.1000    7.2104 Cl      1  UNL1       -0.0814
     18 C          62.4567   85.8111    9.6869 C.ar    1  UNL1        0.0083
     19 C          64.1784   83.8708   14.7699 C.3     1  UNL1        0.0689
     20 C          62.2575   82.1408   14.5117 C.3     1  UNL1        0.0859
     21 N          63.0596   83.0726   15.3709 N.3     1  UNL1       -0.2963
     22 H          63.4677   82.5082   16.1160 H       1  UNL1        0.1233
@<TRIPOS>BOND
     1    20    21    1
     2    21    19    1
     3     1    19    1
     4     1     2    1
     5     2     3    1
     6     3     4   ar
     7     4     5   ar
     8     5     6   ar
     9     6     7   ar
    10     7     8   ar
    11     8     9    1
    12     9    11    1
    13    11    12   ar
    14    12    13   ar
    15    13    14   ar
    16    14    15    1
    17    14    16   ar
    18    16    17    1
    19    16    18   ar
    20     9    10    1
    21    10     1    1
    22     8     3   ar
    23    18    11   ar
    24    21    22    1
@<TRIPOS>MOLECULE
*****
 22 24 0 0 0
SMALL
GASTEIGER

@<TRIPOS>ATOM
      1 C          62.7253   89.5833   11.5497 C.3     1  UNL1        0.0207
      2 C          61.7859   89.8645   10.4146 C.3     1  UNL1        0.0274
      3 C          61.1320   88.7296    9.6835 C.ar    1  UNL1       -0.0258
      4 C          60.1926   89.0107    8.5484 C.ar    1  UNL1       -0.0046
      5 C          59.5388   87.8759    7.8174 C.ar    1  UNL1       -0.0003
      6 C          59.8244   86.4598    8.2213 C.ar    1  UNL1       -0.0003
      7 C          60.7638   86.1786    9.3564 C.ar    1  UNL1       -0.0043
      8 C          61.4176   87.3135   10.0875 C.ar    1  UNL1       -0.0224
      9 C          62.3571   87.0324   11.2226 C.3     1  UNL1        0.0443
     10 C          63.0109   88.1672   11.9537 C.3     1  UNL1        0.0104
     11 C          62.6427   85.6163   11.6266 C.ar    1  UNL1       -0.0175
     12 C          62.3654   85.1664   13.0305 C.ar    1  UNL1       -0.0030
     13 C          62.6511   83.7504   13.4345 C.ar    1  UNL1        0.0119
     14 C          63.2139   82.7842   12.4345 C.ar    1  UNL1        0.0682
     15 CL         63.4995   81.3681   12.8385 Cl      1  UNL1       -0.0814
     16 C          63.4911   83.2341   11.0307 C.ar    1  UNL1        0.0679
     17 CL         64.0540   82.2679   10.0308 Cl      1  UNL1       -0.0814
     18 C          63.2055   84.6501   10.6268 C.ar    1  UNL1        0.0083
     19 C          63.3792   90.7182   12.2808 C.3     1  UNL1        0.0689
     20 C          63.8735   90.3895   14.8101 C.3     1  UNL1        0.0859
     21 N          63.0353   90.9826   13.7167 N.3     1  UNL1       -0.2963
     22 H          63.0587   91.9944   13.8436 H       1  UNL1        0.1233
@<TRIPOS>BOND
     1    20    21    1
     2    21    19    1
     3     1    19    1
     4     1     2    1
     5     2     3    1
     6     3     4   ar
     7     4     5   ar
     8     5     6   ar
     9     6     7   ar
    10     7     8   ar
    11     8     9    1
    12     9    11    1
    13    11    12   ar
    14    12    13   ar
    15    13    14   ar
    16    14    15    1
    17    14    16   ar
    18    16    17    1
    19    16    18   ar
    20     9    10    1
    21    10     1    1
    22     8     3   ar
    23    18    11   ar
    24    21    22    1
@<TRIPOS>MOLECULE
*****
 22 24 0 0 0
SMALL
GASTEIGER

@<TRIPOS>ATOM
      1 C          63.6954   90.0932   15.0409 C.3     1  UNL1        0.0207
      2 C          64.7516   91.1277   14.7877 C.3     1  UNL1        0.0274
      3 C          64.9540   91.6699   13.4037 C.ar    1  UNL1       -0.0258
      4 C          66.0102   92.7043   13.1505 C.ar    1  UNL1       -0.0046
      5 C          66.2125   93.2464   11.7666 C.ar    1  UNL1       -0.0003
      6 C          65.3585   92.7541   10.6360 C.ar    1  UNL1       -0.0003
      7 C          64.3023   91.7196   10.8892 C.ar    1  UNL1       -0.0043
      8 C          64.1000   91.1775   12.2731 C.ar    1  UNL1       -0.0224
      9 C          63.0437   90.1430   12.5264 C.3     1  UNL1        0.0443
     10 C          62.8414   89.6009   13.9103 C.3     1  UNL1        0.0104
     11 C          62.1897   89.6507   11.3958 C.ar    1  UNL1       -0.0175
     12 C          61.0135   90.4605   10.9365 C.ar    1  UNL1       -0.0030
     13 C          60.1596   89.9682    9.8058 C.ar    1  UNL1        0.0119
     14 C          60.4817   88.6660    9.1345 C.ar    1  UNL1        0.0682
     15 CL         59.6277   88.1736    8.0039 Cl      1  UNL1       -0.0814
     16 C          61.6578   87.8562    9.5939 C.ar    1  UNL1        0.0679
     17 CL         61.9800   86.5540    8.9226 Cl      1  UNL1       -0.0814
     18 C          62.5118   88.3486   10.7245 C.ar    1  UNL1        0.0083
     19 C          63.4931   89.5511   16.4248 C.3     1  UNL1        0.0689
     20 C          62.9077   87.2150   17.3993 C.3     1  UNL1        0.0859
     21 N          62.4967   88.4554   16.6629 N.3     1  UNL1       -0.2963
     22 H          61.7255   88.8676   17.1879 H       1  UNL1        0.1233
@<TRIPOS>BOND
     1    20    21    1
     2    21    19    1
     3     1    19    1
     4     1     2    1
     5     2     3    1
     6     3     4   ar
     7     4     5   ar
     8     5     6   ar
     9     6     7   ar
    10     7     8   ar
    11     8     9    1
    12     9    11    1
    13    11    12   ar
    14    12    13   ar
    15    13    14   ar
    16    14    15    1
    17    14    16   ar
    18    16    17    1
    19    16    18   ar
    20     9    10    1
    21    10     1    1
    22     8     3   ar
    23    18    11   ar
    24    21    22    1
@<TRIPOS>MOLECULE
*****
 22 24 0 0 0
SMALL
GASTEIGER

@<TRIPOS>ATOM
      1 C          64.0296   89.1268   13.6346 C.3     1  UNL1        0.0207
      2 C          64.4830   88.0252   14.5461 C.3     1  UNL1        0.0274
      3 C          64.1183   86.6023   14.2421 C.ar    1  UNL1       -0.0258
      4 C          64.5717   85.5007   15.1536 C.ar    1  UNL1       -0.0046
      5 C          64.2069   84.0778   14.8496 C.ar    1  UNL1       -0.0003
      6 C          63.3887   83.7566   13.6341 C.ar    1  UNL1       -0.0003
      7 C          62.9353   84.8582   12.7226 C.ar    1  UNL1       -0.0043
      8 C          63.3001   86.2811   13.0266 C.ar    1  UNL1       -0.0224
      9 C          62.8467   87.3828   12.1151 C.3     1  UNL1        0.0443
     10 C          63.2115   88.8056   12.4191 C.3     1  UNL1        0.0104
     11 C          62.0285   87.0615   10.8996 C.ar    1  UNL1       -0.0175
     12 C          60.6165   87.5567   10.7937 C.ar    1  UNL1       -0.0030
     13 C          59.7983   87.2354    9.5782 C.ar    1  UNL1        0.0119
     14 C          60.3922   86.4191    8.4686 C.ar    1  UNL1        0.0682
     15 CL         59.5740   86.0979    7.2531 Cl      1  UNL1       -0.0814
     16 C          61.8041   85.9241    8.5746 C.ar    1  UNL1        0.0679
     17 CL         62.3980   85.1077    7.4651 Cl      1  UNL1       -0.0814
     18 C          62.6223   86.2453    9.7901 C.ar    1  UNL1        0.0083
     19 C          64.3944   90.5497   13.9386 C.3     1  UNL1        0.0689
     20 C          63.9395   91.3488   16.3685 C.3     1  UNL1        0.0859
     21 N          63.5749   91.3422   14.9135 N.3     1  UNL1       -0.2963
     22 H          63.6001   92.3122   14.5992 H       1  UNL1        0.1233
@<TRIPOS>BOND
     1    20    21    1
     2    21    19    1
     3     1    19    1
     4     1     2    1
     5     2     3    1
     6     3     4   ar
     7     4     5   ar
     8     5     6   ar
     9     6     7   ar
    10     7     8   ar
    11     8     9    1
    12     9    11    1
    13    11    12   ar
    14    12    13   ar
    15    13    14   ar
    16    14    15    1
    17    14    16   ar
    18    16    17    1
    19    16    18   ar
    20     9    10    1
    21    10     1    1
    22     8     3   ar
    23    18    11   ar
    24    21    22    1
@<TRIPOS>MOLECULE
*****
 22 24 0 0 0
SMALL
GASTEIGER

@<TRIPOS>ATOM
      1 C          63.1219   83.2116   12.3833 C.3     1  UNL1        0.0207
      2 C          63.8565   83.8968   13.4972 C.3     1  UNL1        0.0274
      3 C          63.8561   85.3942   13.5863 C.ar    1  UNL1       -0.0258
      4 C          64.5907   86.0794   14.7002 C.ar    1  UNL1       -0.0046
      5 C          64.5903   87.5767   14.7894 C.ar    1  UNL1       -0.0003
      6 C          63.8553   88.3888   13.7646 C.ar    1  UNL1       -0.0003
      7 C          63.1207   87.7036   12.6507 C.ar    1  UNL1       -0.0043
      8 C          63.1211   86.2063   12.5616 C.ar    1  UNL1       -0.0224
      9 C          62.3864   85.5211   11.4476 C.3     1  UNL1        0.0443
     10 C          62.3869   84.0237   11.3585 C.3     1  UNL1        0.0104
     11 C          61.6514   86.3332   10.4229 C.ar    1  UNL1       -0.0175
     12 C          61.3660   85.7525    9.0695 C.ar    1  UNL1       -0.0030
     13 C          60.6310   86.5647    8.0447 C.ar    1  UNL1        0.0119
     14 C          60.1813   87.9575    8.3733 C.ar    1  UNL1        0.0682
     15 CL         59.4463   88.7696    7.3486 Cl      1  UNL1       -0.0814
     16 C          60.4667   88.5381    9.7266 C.ar    1  UNL1        0.0679
     17 CL         60.0170   89.9309   10.0552 Cl      1  UNL1       -0.0814
     18 C          61.2017   87.7260   10.7514 C.ar    1  UNL1        0.0083
     19 C          63.1223   81.7142   12.2941 C.3     1  UNL1        0.0689
     20 C          61.3597   81.1871   14.1285 C.3     1  UNL1        0.0859
     21 N          62.6730   80.8930   13.4661 N.3     1  UNL1       -0.2963
     22 H          62.6323   79.9245   13.1487 H       1  UNL1        0.1233
@<TRIPOS>BOND
     1    20    21    1
     2    21    19    1
     3     1    19    1
     4     1     2    1
     5     2     3    1
     6     3     4   ar
     7     4     5   ar
     8     5     6   ar
     9     6     7   ar
    10     7     8   ar
    11     8     9    1
    12     9    11    1
    13    11    12   ar
    14    12    13   ar
    15    13    14   ar
    16    14    15    1
    17    14    16   ar
    18    16    17    1
    19    16    18   ar
    20     9    10    1
    21    10     1    1
    22     8     3   ar
    23    18    11   ar
    24    21    22    1
@<TRIPOS>MOLECULE
*****
 22 24 0 0 0
SMALL
GASTEIGER

@<TRIPOS>ATOM
      1 C          64.0627   86.2757   14.2628 C.3     1  UNL1        0.0207
      2 C          64.2945   84.8588   14.6972 C.3     1  UNL1        0.0274
      3 C          63.8201   83.7239   13.8386 C.ar    1  UNL1       -0.0258
      4 C          64.0519   82.3071   14.2730 C.ar    1  UNL1       -0.0046
      5 C          63.5776   81.1723   13.4144 C.ar    1  UNL1       -0.0003
      6 C          62.8715   81.4543   12.1214 C.ar    1  UNL1       -0.0003
      7 C          62.6397   82.8712   11.6870 C.ar    1  UNL1       -0.0043
      8 C          63.1140   84.0060   12.5456 C.ar    1  UNL1       -0.0224
      9 C          62.8822   85.4229   12.1112 C.3     1  UNL1        0.0443
     10 C          63.3566   86.5577   12.9698 C.3     1  UNL1        0.0104
     11 C          62.1761   85.7050   10.8182 C.ar    1  UNL1       -0.0175
     12 C          60.9293   86.5390   10.8109 C.ar    1  UNL1       -0.0030
     13 C          60.2232   86.8211    9.5179 C.ar    1  UNL1        0.0119
     14 C          60.7639   86.2691    8.2322 C.ar    1  UNL1        0.0682
     15 CL         60.0578   86.5511    6.9392 Cl      1  UNL1       -0.0814
     16 C          62.0106   85.4351    8.2395 C.ar    1  UNL1        0.0679
     17 CL         62.5513   84.8831    6.9537 Cl      1  UNL1       -0.0814
     18 C          62.7167   85.1530    9.5325 C.ar    1  UNL1        0.0083
     19 C          64.5370   87.4105   15.1213 C.3     1  UNL1        0.0689
     20 C          62.9213   87.6536   17.1412 C.3     1  UNL1        0.0859
     21 N          63.5484   88.2234   15.9035 N.3     1  UNL1       -0.2963
     22 H          64.0269   89.0796   16.1832 H       1  UNL1        0.1233
@<TRIPOS>BOND
     1    20    21    1
     2    21    19    1
     3     1    19    1
     4     1     2    1
     5     2     3    1
     6     3     4   ar
     7     4     5   ar
     8     5     6   ar
     9     6     7   ar
    10     7     8   ar
    11     8     9    1
    12     9    11    1
    13    11    12   ar
    14    12    13   ar
    15    13    14   ar
    16    14    15    1
    17    14    16   ar
    18    16    17    1
    19    16    18   ar
    20     9    10    1
    21    10     1    1
    22     8     3   ar
    23    18    11   ar
    24    21    22    1
