@<TRIPOS>MOLECULE
*****
 33 36 0 0 0
SMALL
GASTEIGER

@<TRIPOS>ATOM
      1 C          64.5491   91.0494   13.1762 C.ar    1  UNL1        0.0648
      2 C          65.0095   90.2983   14.3903 C.ar    1  UNL1        0.0160
      3 C          64.6562   88.8498   14.5547 C.ar    1  UNL1        0.0043
      4 C          63.8426   88.1524   13.5052 C.ar    1  UNL1        0.0341
      5 C          63.3821   88.9035   12.2912 C.ar    1  UNL1        0.0043
      6 C          63.7354   90.3520   12.1267 C.ar    1  UNL1        0.0160
      7 C          63.4893   86.7039   13.6697 C.ar    1  UNL1        0.1416
      8 N          63.4390   86.0951   15.0396 N.ar    1  UNL1       -0.2267
      9 C          63.0857   84.6466   15.2040 C.ar    1  UNL1        0.1064
     10 C          62.7829   83.8069   13.9985 C.ar    1  UNL1        0.0877
     11 C          62.4070   82.3623   13.8503 C.ar    1  UNL1        0.1516
     12 N          62.2421   81.3750   14.9675 N.pl3   1  UNL1       -0.3411
     13 N          62.2251   82.0783   12.3887 N.ar    1  UNL1       -0.1318
     14 N          62.4885   83.3474   11.6337 N.ar    1  UNL1       -0.1290
     15 C          62.8332   84.4157   12.6286 C.ar    1  UNL1        0.1674
     16 N          63.1864   85.8642   12.4642 N.ar    1  UNL1       -0.3224
     17 H          62.3839   81.6583   15.8996 H       1  UNL1        0.1438
     18 H          61.9920   80.4438   14.7686 H       1  UNL1        0.1438
     19 H          63.2195   86.2638   11.5650 H       1  UNL1        0.1688
     20 N          64.9023   92.4979   13.0118 N.pl3   1  UNL1       -0.2150
     21 H          64.5455   93.1661   13.6406 H       1  UNL1        0.1737
     22 S          65.7993   92.9283   11.8892 S.O2    1  UNL1        0.0743
     23 O          64.6595   92.7872   10.9244 O.2     1  UNL1       -0.1499
     24 O          66.9390   93.0695   12.8541 O.2     1  UNL1       -0.1499
     25 C          66.8056   94.8113   10.4087 C.ar    1  UNL1        0.0873
     26 C          67.7026   95.2417    9.2862 C.ar    1  UNL1        0.0125
     27 C          68.4904   94.2195    8.5216 C.ar    1  UNL1        0.0122
     28 C          68.3812   92.7670    8.8796 C.ar    1  UNL1        0.0591
     29 CL         69.1689   91.7448    8.1150 Cl      1  UNL1       -0.0822
     30 C          67.4841   92.3366   10.0021 C.ar    1  UNL1        0.0323
     31 C          66.6963   93.3588   10.7667 C.ar    1  UNL1        0.1356
     32 N          65.2300   96.8556   11.9379 N.1     1  UNL1       -0.1908
     33 C          66.0178   95.8335   11.1733 C.1     1  UNL1        0.1018
@<TRIPOS>BOND
     1    32    33    3
     2    33    25    1
     3    25    26   ar
     4    26    27   ar
     5    27    28   ar
     6    28    29    1
     7    28    30   ar
     8    30    31   ar
     9    31    22    1
    10    22    23    2
    11    22    24    2
    12    22    20    1
    13    20     1    1
    14     1     2   ar
    15     2     3   ar
    16     3     4   ar
    17     4     7    1
    18     7     8   ar
    19     8     9   ar
    20     9    10   ar
    21    10    11   ar
    22    11    12    1
    23    11    13   ar
    24    13    14   ar
    25    14    15   ar
    26    15    16   ar
    27     4     5   ar
    28     5     6   ar
    29    31    25   ar
    30     6     1   ar
    31    16     7   ar
    32    15    10    1
    33    20    21    1
    34    12    17    1
    35    12    18    1
    36    16    19    1
@<TRIPOS>MOLECULE
*****
 33 36 0 0 0
SMALL
GASTEIGER

@<TRIPOS>ATOM
      1 C          64.5160   91.2907   13.2523 C.ar    1  UNL1        0.0648
      2 C          65.0617   90.4116   14.3384 C.ar    1  UNL1        0.0160
      3 C          64.7289   88.9491   14.3576 C.ar    1  UNL1        0.0043
      4 C          63.8504   88.3657   13.2909 C.ar    1  UNL1        0.0341
      5 C          63.3047   89.2448   12.2049 C.ar    1  UNL1        0.0043
      6 C          63.6375   90.7073   12.1856 C.ar    1  UNL1        0.0160
      7 C          63.5177   86.9032   13.3102 C.ar    1  UNL1        0.1416
      8 N          62.7126   86.3024   12.1962 N.ar    1  UNL1       -0.2267
      9 C          62.3799   84.8399   12.2155 C.ar    1  UNL1        0.1064
     10 C          62.8523   83.9782   13.3488 C.ar    1  UNL1        0.0877
     11 C          62.6801   82.5163   13.6374 C.ar    1  UNL1        0.1516
     12 N          61.9393   81.5303   12.7836 N.pl3   1  UNL1       -0.3411
     13 N          63.3787   82.2136   14.9298 N.ar    1  UNL1       -0.1318
     14 N          63.9827   83.4884   15.4399 N.ar    1  UNL1       -0.1290
     15 C          63.6573   84.5790   14.4628 C.ar    1  UNL1        0.1674
     16 N          63.9900   86.0415   14.4435 N.ar    1  UNL1       -0.3224
     17 H          61.5113   81.8266   11.9480 H       1  UNL1        0.1438
     18 H          61.8812   80.5868   13.0588 H       1  UNL1        0.1438
     19 H          64.5184   86.4358   15.1746 H       1  UNL1        0.1688
     20 N          64.8487   92.7532   13.2331 N.pl3   1  UNL1       -0.2150
     21 H          64.6078   93.3230   13.9990 H       1  UNL1        0.1737
     22 S          65.5485   93.3476   12.0470 S.O2    1  UNL1        0.0743
     23 O          66.2199   94.3456   12.9431 O.2     1  UNL1       -0.1499
     24 O          64.8771   92.3496   11.1508 O.2     1  UNL1       -0.1499
     25 C          67.5911   93.4200   10.4430 C.ar    1  UNL1        0.0873
     26 C          68.2908   94.0143    9.2568 C.ar    1  UNL1        0.0125
     27 C          67.6478   95.1306    8.4883 C.ar    1  UNL1        0.0122
     28 C          66.3050   95.6525    8.9061 C.ar    1  UNL1        0.0591
     29 CL         65.6620   96.7687    8.1376 Cl      1  UNL1       -0.0822
     30 C          65.6053   95.0582   10.0923 C.ar    1  UNL1        0.0323
     31 C          66.2483   93.9419   10.8607 C.ar    1  UNL1        0.1356
     32 N          68.8771   91.1875   11.9798 N.1     1  UNL1       -0.1908
     33 C          68.2341   92.3038   11.2114 C.1     1  UNL1        0.1018
@<TRIPOS>BOND
     1    32    33    3
     2    33    25    1
     3    25    26   ar
     4    26    27   ar
     5    27    28   ar
     6    28    29    1
     7    28    30   ar
     8    30    31   ar
     9    31    22    1
    10    22    23    2
    11    22    24    2
    12    22    20    1
    13    20     1    1
    14     1     2   ar
    15     2     3   ar
    16     3     4   ar
    17     4     7    1
    18     7     8   ar
    19     8     9   ar
    20     9    10   ar
    21    10    11   ar
    22    11    12    1
    23    11    13   ar
    24    13    14   ar
    25    14    15   ar
    26    15    16   ar
    27     4     5   ar
    28     5     6   ar
    29    31    25   ar
    30     6     1   ar
    31    16     7   ar
    32    15    10    1
    33    20    21    1
    34    12    17    1
    35    12    18    1
    36    16    19    1
@<TRIPOS>MOLECULE
*****
 33 36 0 0 0
SMALL
GASTEIGER

@<TRIPOS>ATOM
      1 C          63.5186   89.0525   12.9296 C.ar    1  UNL1        0.0648
      2 C          64.0650   88.1297   13.9785 C.ar    1  UNL1        0.0160
      3 C          63.9275   86.6449   13.8164 C.ar    1  UNL1        0.0043
      4 C          63.2436   86.0827   12.6055 C.ar    1  UNL1        0.0341
      5 C          62.6973   87.0054   11.5567 C.ar    1  UNL1        0.0043
      6 C          62.8348   88.4903   11.7187 C.ar    1  UNL1        0.0160
      7 C          63.1061   84.5978   12.4435 C.ar    1  UNL1        0.1416
      8 N          63.4056   83.9567   11.1209 N.ar    1  UNL1       -0.2267
      9 C          63.2681   82.4719   10.9589 C.ar    1  UNL1        0.1064
     10 C          62.8312   81.6281   12.1196 C.ar    1  UNL1        0.0877
     11 C          62.6083   80.1513   12.2592 C.ar    1  UNL1        0.1516
     12 N          62.7906   79.1261   11.1794 N.pl3   1  UNL1       -0.3411
     13 N          62.1711   79.8797   13.6681 N.ar    1  UNL1       -0.1318
     14 N          62.1238   81.1886   14.3992 N.ar    1  UNL1       -0.1290
     15 C          62.5317   82.2691   13.4422 C.ar    1  UNL1        0.1674
     16 N          62.6692   83.7540   13.6041 N.ar    1  UNL1       -0.3224
     17 H          63.0823   79.4039   10.2811 H       1  UNL1        0.1438
     18 H          62.6186   78.1755   11.3691 H       1  UNL1        0.1438
     19 H          62.4727   84.1748   14.4722 H       1  UNL1        0.1688
     20 N          63.6561   90.5373   13.0916 N.pl3   1  UNL1       -0.2150
     21 H          62.9380   91.1350   12.7811 H       1  UNL1        0.1737
     22 S          64.8877   91.1115   13.7268 S.O2    1  UNL1        0.0743
     23 O          64.9538   89.9384   14.6592 O.2     1  UNL1       -0.1499
     24 O          64.8216   92.2847   12.7944 O.2     1  UNL1       -0.1499
     25 C          66.0263   92.3736   15.6917 C.ar    1  UNL1        0.0873
     26 C          67.2579   92.9478   16.3268 C.ar    1  UNL1        0.0125
     27 C          68.5825   92.8343   15.6321 C.ar    1  UNL1        0.0122
     28 C          68.6755   92.1466   14.3024 C.ar    1  UNL1        0.0591
     29 CL         70.0001   92.0331   13.6077 Cl      1  UNL1       -0.0822
     30 C          67.4439   91.5724   13.6673 C.ar    1  UNL1        0.0323
     31 C          66.1193   91.6858   14.3620 C.ar    1  UNL1        0.1356
     32 N          63.3771   92.6005   17.0811 N.1     1  UNL1       -0.1908
     33 C          64.7017   92.4871   16.3864 C.1     1  UNL1        0.1018
@<TRIPOS>BOND
     1    32    33    3
     2    33    25    1
     3    25    26   ar
     4    26    27   ar
     5    27    28   ar
     6    28    29    1
     7    28    30   ar
     8    30    31   ar
     9    31    22    1
    10    22    23    2
    11    22    24    2
    12    22    20    1
    13    20     1    1
    14     1     2   ar
    15     2     3   ar
    16     3     4   ar
    17     4     7    1
    18     7     8   ar
    19     8     9   ar
    20     9    10   ar
    21    10    11   ar
    22    11    12    1
    23    11    13   ar
    24    13    14   ar
    25    14    15   ar
    26    15    16   ar
    27     4     5   ar
    28     5     6   ar
    29    31    25   ar
    30     6     1   ar
    31    16     7   ar
    32    15    10    1
    33    20    21    1
    34    12    17    1
    35    12    18    1
    36    16    19    1
@<TRIPOS>MOLECULE
*****
 33 36 0 0 0
SMALL
GASTEIGER

@<TRIPOS>ATOM
      1 C          63.6139   87.8493   14.9755 C.ar    1  UNL1        0.0648
      2 C          63.7152   86.5623   15.7395 C.ar    1  UNL1        0.0160
      3 C          63.6136   85.2515   15.0174 C.ar    1  UNL1        0.0043
      4 C          63.4106   85.2275   13.5314 C.ar    1  UNL1        0.0341
      5 C          63.3093   86.5144   12.7674 C.ar    1  UNL1        0.0043
      6 C          63.4110   87.8253   13.4895 C.ar    1  UNL1        0.0160
      7 C          63.3090   83.9166   12.8094 C.ar    1  UNL1        0.1416
      8 N          63.6301   83.8394   11.3463 N.ar    1  UNL1       -0.2267
      9 C          63.5284   82.5285   10.6243 C.ar    1  UNL1        0.1064
     10 C          63.1056   81.2949   11.3655 C.ar    1  UNL1        0.0877
     11 C          62.9169   79.8738   10.9239 C.ar    1  UNL1        0.1516
     12 N          63.1287   79.3464    9.5358 N.pl3   1  UNL1       -0.3411
     13 N          62.4791   79.0728   12.1141 N.ar    1  UNL1       -0.1318
     14 N          62.3972   79.9988   13.2914 N.ar    1  UNL1       -0.1290
     15 C          62.7845   81.3721   12.8287 C.ar    1  UNL1        0.1674
     16 N          62.8861   82.6830   13.5506 N.ar    1  UNL1       -0.3224
     17 H          63.4184   79.9539    8.8172 H       1  UNL1        0.1438
     18 H          62.9782   78.3927    9.3432 H       1  UNL1        0.1438
     19 H          62.6753   82.7337   14.5110 H       1  UNL1        0.1688
     20 N          63.7156   89.1601   15.6975 N.pl3   1  UNL1       -0.2150
     21 H          63.2874   89.2722   16.5769 H       1  UNL1        0.1737
     22 S          64.4697   90.3001   15.0797 S.O2    1  UNL1        0.0743
     23 O          65.5059   89.3406   14.5740 O.2     1  UNL1       -0.1499
     24 O          63.4336   91.2595   15.5854 O.2     1  UNL1       -0.1499
     25 C          64.9129   91.8727   13.0597 C.ar    1  UNL1        0.0873
     26 C          65.6670   93.0127   12.4420 C.ar    1  UNL1        0.0125
     27 C          66.7320   93.7202   13.2264 C.ar    1  UNL1        0.0122
     28 C          67.0429   93.2876   14.6286 C.ar    1  UNL1        0.0591
     29 CL         68.1079   93.9950   15.4130 Cl      1  UNL1       -0.0822
     30 C          66.2888   92.1475   15.2463 C.ar    1  UNL1        0.0323
     31 C          65.2238   91.4401   14.4619 C.ar    1  UNL1        0.1356
     32 N          62.7830   90.4579   11.4908 N.1     1  UNL1       -0.1908
     33 C          63.8479   91.1653   12.2753 C.1     1  UNL1        0.1018
@<TRIPOS>BOND
     1    32    33    3
     2    33    25    1
     3    25    26   ar
     4    26    27   ar
     5    27    28   ar
     6    28    29    1
     7    28    30   ar
     8    30    31   ar
     9    31    22    1
    10    22    23    2
    11    22    24    2
    12    22    20    1
    13    20     1    1
    14     1     2   ar
    15     2     3   ar
    16     3     4   ar
    17     4     7    1
    18     7     8   ar
    19     8     9   ar
    20     9    10   ar
    21    10    11   ar
    22    11    12    1
    23    11    13   ar
    24    13    14   ar
    25    14    15   ar
    26    15    16   ar
    27     4     5   ar
    28     5     6   ar
    29    31    25   ar
    30     6     1   ar
    31    16     7   ar
    32    15    10    1
    33    20    21    1
    34    12    17    1
    35    12    18    1
    36    16    19    1
@<TRIPOS>MOLECULE
*****
 33 36 0 0 0
SMALL
GASTEIGER

@<TRIPOS>ATOM
      1 C          59.0227   90.0539    6.1125 C.ar    1  UNL1        0.0648
      2 C          60.4713   90.0381    5.7235 C.ar    1  UNL1        0.0160
      3 C          60.9763   90.9830    4.6736 C.ar    1  UNL1        0.0043
      4 C          60.0327   91.9436    4.0127 C.ar    1  UNL1        0.0341
      5 C          58.5841   91.9594    4.4016 C.ar    1  UNL1        0.0043
      6 C          58.0791   91.0146    5.4516 C.ar    1  UNL1        0.0160
      7 C          60.5378   92.8885    2.9628 C.ar    1  UNL1        0.1416
      8 N          59.6713   94.0184    2.4912 N.ar    1  UNL1       -0.2267
      9 C          60.1763   94.9631    1.4414 C.ar    1  UNL1        0.1064
     10 C          61.5479   94.7780    0.8631 C.ar    1  UNL1        0.0877
     11 C          62.3106   95.5444   -0.1767 C.ar    1  UNL1        0.1516
     12 N          61.8213   96.7545   -0.9157 N.pl3   1  UNL1       -0.3411
     13 N          63.6485   94.8880   -0.3478 N.ar    1  UNL1       -0.1318
     14 N          63.7127   93.7161    0.5863 N.ar    1  UNL1       -0.1290
     15 C          62.4145   93.6481    1.3346 C.ar    1  UNL1        0.1674
     16 N          61.9094   92.7033    2.3845 N.ar    1  UNL1       -0.3224
     17 H          60.9228   97.1130   -0.7328 H       1  UNL1        0.1438
     18 H          62.3986   97.1903   -1.5836 H       1  UNL1        0.1438
     19 H          62.4781   91.9617    2.6940 H       1  UNL1        0.1688
     20 N          58.5177   89.1091    7.1623 N.pl3   1  UNL1       -0.2150
     21 H          57.5510   89.0338    7.3329 H       1  UNL1        0.1737
     22 S          59.4855   88.2791    7.9524 S.O2    1  UNL1        0.0743
     23 O          60.2532   89.5165    8.3121 O.2     1  UNL1       -0.1499
     24 O          58.7179   87.0416    7.5927 O.2     1  UNL1       -0.1499
     25 C          60.5901   87.6603   10.2211 C.ar    1  UNL1        0.0873
     26 C          61.5580   86.8302   11.0111 C.ar    1  UNL1        0.0125
     27 C          62.3892   85.7887   10.3224 C.ar    1  UNL1        0.0122
     28 C          62.2525   85.5773    8.8437 C.ar    1  UNL1        0.0591
     29 CL         63.0837   84.5358    8.1549 Cl      1  UNL1       -0.0822
     30 C          61.2846   86.4074    8.0537 C.ar    1  UNL1        0.0323
     31 C          60.4534   87.4489    8.7424 C.ar    1  UNL1        0.1356
     32 N          58.9277   89.7434   11.5986 N.1     1  UNL1       -0.1908
     33 C          59.7589   88.7018   10.9098 C.1     1  UNL1        0.1018
@<TRIPOS>BOND
     1    32    33    3
     2    33    25    1
     3    25    26   ar
     4    26    27   ar
     5    27    28   ar
     6    28    29    1
     7    28    30   ar
     8    30    31   ar
     9    31    22    1
    10    22    23    2
    11    22    24    2
    12    22    20    1
    13    20     1    1
    14     1     2   ar
    15     2     3   ar
    16     3     4   ar
    17     4     7    1
    18     7     8   ar
    19     8     9   ar
    20     9    10   ar
    21    10    11   ar
    22    11    12    1
    23    11    13   ar
    24    13    14   ar
    25    14    15   ar
    26    15    16   ar
    27     4     5   ar
    28     5     6   ar
    29    31    25   ar
    30     6     1   ar
    31    16     7   ar
    32    15    10    1
    33    20    21    1
    34    12    17    1
    35    12    18    1
    36    16    19    1
@<TRIPOS>MOLECULE
*****
 33 36 0 0 0
SMALL
GASTEIGER

@<TRIPOS>ATOM
      1 C          63.2082   89.3850   12.3435 C.ar    1  UNL1        0.0648
      2 C          63.8603   88.5948   13.4391 C.ar    1  UNL1        0.0160
      3 C          63.7710   87.0975   13.4391 C.ar    1  UNL1        0.0043
      4 C          63.0296   86.3903   12.3436 C.ar    1  UNL1        0.0341
      5 C          62.3775   87.1805   11.2480 C.ar    1  UNL1        0.0043
      6 C          62.4667   88.6779   11.2480 C.ar    1  UNL1        0.0160
      7 C          62.9403   84.8929   12.3436 C.ar    1  UNL1        0.1416
      8 N          63.1210   84.1308   11.0644 N.ar    1  UNL1       -0.2267
      9 C          63.0317   82.6335   11.0645 C.ar    1  UNL1        0.1064
     10 C          62.7618   81.8983   12.3439 C.ar    1  UNL1        0.0877
     11 C          62.6204   80.4369   12.6510 C.ar    1  UNL1        0.1516
     12 N          62.7281   79.3137   11.6627 N.pl3   1  UNL1       -0.3411
     13 N          62.3524   80.2959   14.1201 N.ar    1  UNL1       -0.1318
     14 N          62.3281   81.6701   14.7209 N.ar    1  UNL1       -0.1290
     15 C          62.5811   82.6605   13.6231 C.ar    1  UNL1        0.1674
     16 N          62.6704   84.1578   13.6230 N.ar    1  UNL1       -0.3224
     17 H          62.9073   79.5081   10.7143 H       1  UNL1        0.1438
     18 H          62.6196   78.3822   11.9623 H       1  UNL1        0.1438
     19 H          62.5519   84.6580   14.4626 H       1  UNL1        0.1688
     20 N          63.2975   90.8823   12.3435 N.pl3   1  UNL1       -0.2150
     21 H          62.6113   91.4164   11.8817 H       1  UNL1        0.1737
     22 S          64.4322   91.5660   13.0470 S.O2    1  UNL1        0.0743
     23 O          63.6330   91.5866   14.3161 O.2     1  UNL1       -0.1499
     24 O          65.2315   91.5453   11.7779 O.2     1  UNL1       -0.1499
     25 C          66.2162   93.4528   13.1333 C.ar    1  UNL1        0.0873
     26 C          67.3509   94.1364   13.8368 C.ar    1  UNL1        0.0125
     27 C          67.8366   93.6168   15.1575 C.ar    1  UNL1        0.0122
     28 C          67.1875   92.4136   15.7746 C.ar    1  UNL1        0.0591
     29 CL         67.6732   91.8940   17.0953 Cl      1  UNL1       -0.0822
     30 C          66.0527   91.7300   15.0711 C.ar    1  UNL1        0.0323
     31 C          65.5671   92.2496   13.7505 C.ar    1  UNL1        0.1356
     32 N          65.2448   94.4920   10.4920 N.1     1  UNL1       -0.1908
     33 C          65.7305   93.9724   11.8127 C.1     1  UNL1        0.1018
@<TRIPOS>BOND
     1    32    33    3
     2    33    25    1
     3    25    26   ar
     4    26    27   ar
     5    27    28   ar
     6    28    29    1
     7    28    30   ar
     8    30    31   ar
     9    31    22    1
    10    22    23    2
    11    22    24    2
    12    22    20    1
    13    20     1    1
    14     1     2   ar
    15     2     3   ar
    16     3     4   ar
    17     4     7    1
    18     7     8   ar
    19     8     9   ar
    20     9    10   ar
    21    10    11   ar
    22    11    12    1
    23    11    13   ar
    24    13    14   ar
    25    14    15   ar
    26    15    16   ar
    27     4     5   ar
    28     5     6   ar
    29    31    25   ar
    30     6     1   ar
    31    16     7   ar
    32    15    10    1
    33    20    21    1
    34    12    17    1
    35    12    18    1
    36    16    19    1
@<TRIPOS>MOLECULE
*****
 33 36 0 0 0
SMALL
GASTEIGER

@<TRIPOS>ATOM
      1 C          62.3007   89.4211   12.0666 C.ar    1  UNL1        0.0648
      2 C          62.6156   90.8167   11.6156 C.ar    1  UNL1        0.0160
      3 C          63.7320   91.5804   12.2640 C.ar    1  UNL1        0.0043
      4 C          64.5334   90.9487   13.3633 C.ar    1  UNL1        0.0341
      5 C          64.2186   89.5532   13.8143 C.ar    1  UNL1        0.0043
      6 C          63.1021   88.7894   13.1659 C.ar    1  UNL1        0.0160
      7 C          65.6498   91.7125   14.0117 C.ar    1  UNL1        0.1416
      8 N          65.3574   92.6514   15.1443 N.ar    1  UNL1       -0.2267
      9 C          66.4738   93.4151   15.7926 C.ar    1  UNL1        0.1064
     10 C          67.8826   93.2400   15.3083 C.ar    1  UNL1        0.0877
     11 C          69.1788   93.8534   15.7484 C.ar    1  UNL1        0.1516
     12 N          69.3512   94.8513   16.8549 N.pl3   1  UNL1       -0.3411
     13 N          70.2723   93.2935   14.8877 N.ar    1  UNL1       -0.1318
     14 N          69.6520   92.3341   13.9157 N.ar    1  UNL1       -0.1290
     15 C          68.1750   92.3011   14.1757 C.ar    1  UNL1        0.1674
     16 N          67.0587   91.5373   13.5274 N.ar    1  UNL1       -0.3224
     17 H          68.5683   95.1600   17.3657 H       1  UNL1        0.1438
     18 H          70.2473   95.1977   17.0703 H       1  UNL1        0.1438
     19 H          67.2506   90.9211   12.7840 H       1  UNL1        0.1688
     20 N          61.1843   88.6574   11.4182 N.pl3   1  UNL1       -0.2150
     21 H          60.2485   88.8961   11.6095 H       1  UNL1        0.1737
     22 S          61.4937   87.5300   10.4784 S.O2    1  UNL1        0.0743
     23 O          62.1308   88.4984    9.5265 O.2     1  UNL1       -0.1499
     24 O          60.8567   86.5616   11.4304 O.2     1  UNL1       -0.1499
     25 C          61.0906   86.3065    8.2222 C.ar    1  UNL1        0.0873
     26 C          61.4000   85.1791    7.2825 C.ar    1  UNL1        0.0125
     27 C          62.4220   84.1477    7.6592 C.ar    1  UNL1        0.0122
     28 C          63.1346   84.2438    8.9756 C.ar    1  UNL1        0.0591
     29 CL         64.1565   83.2125    9.3523 Cl      1  UNL1       -0.0822
     30 C          62.8251   85.3712    9.9153 C.ar    1  UNL1        0.0323
     31 C          61.8031   86.4026    9.5386 C.ar    1  UNL1        0.1356
     32 N          59.0467   88.3692    7.4688 N.1     1  UNL1       -0.1908
     33 C          60.0686   87.3378    7.8455 C.1     1  UNL1        0.1018
@<TRIPOS>BOND
     1    32    33    3
     2    33    25    1
     3    25    26   ar
     4    26    27   ar
     5    27    28   ar
     6    28    29    1
     7    28    30   ar
     8    30    31   ar
     9    31    22    1
    10    22    23    2
    11    22    24    2
    12    22    20    1
    13    20     1    1
    14     1     2   ar
    15     2     3   ar
    16     3     4   ar
    17     4     7    1
    18     7     8   ar
    19     8     9   ar
    20     9    10   ar
    21    10    11   ar
    22    11    12    1
    23    11    13   ar
    24    13    14   ar
    25    14    15   ar
    26    15    16   ar
    27     4     5   ar
    28     5     6   ar
    29    31    25   ar
    30     6     1   ar
    31    16     7   ar
    32    15    10    1
    33    20    21    1
    34    12    17    1
    35    12    18    1
    36    16    19    1
@<TRIPOS>MOLECULE
*****
 33 36 0 0 0
SMALL
GASTEIGER

@<TRIPOS>ATOM
      1 C          59.1119   92.0272    3.6683 C.ar    1  UNL1        0.0648
      2 C          58.0096   91.5924    4.5882 C.ar    1  UNL1        0.0160
      3 C          58.3269   90.7748    5.8050 C.ar    1  UNL1        0.0043
      4 C          59.7465   90.3920    6.1022 C.ar    1  UNL1        0.0341
      5 C          60.8487   90.8268    5.1824 C.ar    1  UNL1        0.0043
      6 C          60.5314   91.6444    3.9654 C.ar    1  UNL1        0.0160
      7 C          60.0638   89.5744    7.3191 C.ar    1  UNL1        0.1416
      8 N          59.8334   88.0923    7.3079 N.ar    1  UNL1       -0.2267
      9 C          60.1507   87.2748    8.5248 C.ar    1  UNL1        0.1064
     10 C          60.6984   87.9394    9.7530 C.ar    1  UNL1        0.0877
     11 C          61.1022   87.3973   11.0921 C.ar    1  UNL1        0.1516
     12 N          61.0373   85.9604   11.5176 N.pl3   1  UNL1       -0.3411
     13 N          61.5821   88.5445   11.9309 N.ar    1  UNL1       -0.1318
     14 N          61.4750   89.7955   11.1102 N.ar    1  UNL1       -0.1290
     15 C          60.9288   89.4215    9.7642 C.ar    1  UNL1        0.1674
     16 N          60.6115   90.2390    8.5473 N.ar    1  UNL1       -0.3224
     17 H          60.7056   85.2763   10.8922 H       1  UNL1        0.1438
     18 H          61.3265   85.7015   12.4224 H       1  UNL1        0.1438
     19 H          60.7627   91.2118    8.5546 H       1  UNL1        0.1688
     20 N          58.7945   92.8447    2.4514 N.pl3   1  UNL1       -0.2150
     21 H          57.8571   93.0195    2.2065 H       1  UNL1        0.1737
     22 S          59.9054   93.3960    1.6077 S.O2    1  UNL1        0.0743
     23 O          59.7624   92.2392    0.6636 O.2     1  UNL1       -0.1499
     24 O          60.0485   94.5528    2.5518 O.2     1  UNL1       -0.1499
     25 C          60.7096   94.9116   -0.3433 C.ar    1  UNL1        0.0873
     26 C          61.8206   95.4629   -1.1870 C.ar    1  UNL1        0.0125
     27 C          63.2383   95.0499   -0.9234 C.ar    1  UNL1        0.0122
     28 C          63.5451   94.0857    0.1838 C.ar    1  UNL1        0.0591
     29 CL         64.9628   93.6727    0.4474 Cl      1  UNL1       -0.0822
     30 C          62.4342   93.5344    1.0275 C.ar    1  UNL1        0.0323
     31 C          61.0164   93.9473    0.7639 C.ar    1  UNL1        0.1356
     32 N          57.8741   95.7375   -0.8704 N.1     1  UNL1       -0.1908
     33 C          59.2919   95.3246   -0.6069 C.1     1  UNL1        0.1018
@<TRIPOS>BOND
     1    32    33    3
     2    33    25    1
     3    25    26   ar
     4    26    27   ar
     5    27    28   ar
     6    28    29    1
     7    28    30   ar
     8    30    31   ar
     9    31    22    1
    10    22    23    2
    11    22    24    2
    12    22    20    1
    13    20     1    1
    14     1     2   ar
    15     2     3   ar
    16     3     4   ar
    17     4     7    1
    18     7     8   ar
    19     8     9   ar
    20     9    10   ar
    21    10    11   ar
    22    11    12    1
    23    11    13   ar
    24    13    14   ar
    25    14    15   ar
    26    15    16   ar
    27     4     5   ar
    28     5     6   ar
    29    31    25   ar
    30     6     1   ar
    31    16     7   ar
    32    15    10    1
    33    20    21    1
    34    12    17    1
    35    12    18    1
    36    16    19    1
