@<TRIPOS>MOLECULE
*****
 29 32 0 0 0
SMALL
GASTEIGER

@<TRIPOS>ATOM
      1 C          62.1363   88.4183   11.4429 C.2     1  UNL1        0.3257
      2 N          62.6510   87.1924   12.1371 N.2     1  UNL1       -0.0236
      3 C          62.3648   85.8335   11.5702 C.2     1  UNL1        0.2640
      4 C          61.5638   85.7006   10.3089 C.2     1  UNL1        0.0638
      5 C          61.0491   86.9265    9.6146 C.2     1  UNL1        0.0139
      6 C          60.2382   87.1068    8.3657 C.2     1  UNL1       -0.0101
      7 C          59.7312   86.0094    7.4776 C.3     1  UNL1        0.0320
      8 C          60.0232   88.5772    8.1608 C.2     1  UNL1        0.0509
      9 C          59.2635   89.2082    7.0317 C.3     1  UNL1        0.0513
     10 N          60.7013   89.3056    9.2831 N.2     1  UNL1       -0.2603
     11 C          61.3353   88.2854   10.1816 C.3     1  UNL1        0.2296
     12 N          62.8796   84.6075   12.2644 N.ar    1  UNL1       -0.2369
     13 C          62.6220   84.4111   13.7290 C.ar    1  UNL1        0.0864
     14 C          63.1367   83.1852   14.4233 C.ar    1  UNL1        0.0194
     15 C          63.9091   82.1555   13.6530 C.ar    1  UNL1        0.0064
     16 C          64.1667   82.3519   12.1884 C.ar    1  UNL1        0.0612
     17 C          63.6519   83.5780   11.4941 C.ar    1  UNL1        0.2675
     18 O          63.9096   83.7743   10.0295 O.2     1  UNL1       -0.2665
     19 N          62.4225   89.7773   12.0099 N.pl3   1  UNL1       -0.2166
     20 H          61.7744   90.5082   11.8874 H       1  UNL1        0.2923
     21 C          63.6961   90.0225   12.7634 C.3     1  UNL1        0.2258
     22 C          63.5029   91.3656   10.0878 C.3     1  UNL1        0.0308
     23 C          64.4147   91.9208   11.1416 C.ar    1  UNL1       -0.0223
     24 C          65.2299   93.1475   10.8576 C.ar    1  UNL1       -0.0045
     25 C          66.1417   93.7026   11.9114 C.ar    1  UNL1       -0.0007
     26 C          66.2382   93.0311   13.2492 C.ar    1  UNL1       -0.0045
     27 C          65.4230   91.8044   13.5332 C.ar    1  UNL1       -0.0223
     28 C          65.5196   91.1328   14.8710 C.3     1  UNL1        0.0308
     29 C          64.5112   91.2492   12.4794 C.ar    1  UNL1        0.0162
@<TRIPOS>BOND
     1    22    23    1
     2    23    24   ar
     3    24    25   ar
     4    25    26   ar
     5    26    27   ar
     6    27    28    1
     7    27    29   ar
     8    29    21    1
     9    21    19    1
    10    19     1    1
    11     1     2    2
    12     2     3    1
    13     3    12    1
    14    12    13   ar
    15    13    14   ar
    16    14    15   ar
    17    15    16   ar
    18    16    17   ar
    19    17    18    2
    20     3     4    2
    21     4     5    1
    22     5     6    2
    23     6     7    1
    24     6     8    1
    25     8     9    1
    26     8    10    2
    27    10    11    1
    28    29    23   ar
    29    11     1    1
    30    17    12   ar
    31    11     5    1
    32    19    20    1
@<TRIPOS>MOLECULE
*****
 29 32 0 0 0
SMALL
GASTEIGER

@<TRIPOS>ATOM
      1 C          63.3293   86.8124   13.1142 C.2     1  UNL1        0.3257
      2 N          62.4908   86.4334   11.9296 N.2     1  UNL1       -0.0236
      3 C          62.0866   87.4781   10.9320 C.2     1  UNL1        0.2640
      4 C          62.5207   88.9016   11.1190 C.2     1  UNL1        0.0638
      5 C          63.3592   89.2806   12.3036 C.2     1  UNL1        0.0139
      6 C          63.9330   90.5931   12.7486 C.2     1  UNL1       -0.0101
      7 C          63.7756   91.9081   12.0445 C.3     1  UNL1        0.0320
      8 C          64.6920   90.3596   14.0212 C.2     1  UNL1        0.0509
      9 C          65.4267   91.4003   14.8131 C.3     1  UNL1        0.0513
     10 N          64.5872   88.9028   14.3628 N.2     1  UNL1       -0.2603
     11 C          63.7634   88.2359   13.3012 C.3     1  UNL1        0.2296
     12 N          61.2481   87.0992    9.7472 N.ar    1  UNL1       -0.2369
     13 C          59.9064   87.7380    9.5429 C.ar    1  UNL1        0.0864
     14 C          59.0680   87.3592    8.3582 C.ar    1  UNL1        0.0194
     15 C          59.5712   86.3414    7.3779 C.ar    1  UNL1        0.0064
     16 C          60.9129   85.7026    7.5822 C.ar    1  UNL1        0.0612
     17 C          61.7513   86.0815    8.7669 C.ar    1  UNL1        0.2675
     18 O          63.0930   85.4426    8.9713 O.2     1  UNL1       -0.2665
     19 N          63.7336   85.7677   14.1119 N.pl3   1  UNL1       -0.2166
     20 H          63.5667   85.9125   15.0713 H       1  UNL1        0.2923
     21 C          64.3922   84.5025   13.6478 C.3     1  UNL1        0.2258
     22 C          64.5977   82.9669   11.0788 C.3     1  UNL1        0.0308
     23 C          63.6774   82.4929   12.1643 C.ar    1  UNL1       -0.0223
     24 C          62.8598   81.2511   11.9653 C.ar    1  UNL1       -0.0045
     25 C          61.9395   80.7772   13.0508 C.ar    1  UNL1       -0.0007
     26 C          61.8368   81.5449   14.3353 C.ar    1  UNL1       -0.0045
     27 C          62.6543   82.7867   14.5343 C.ar    1  UNL1       -0.0223
     28 C          62.5515   83.5545   15.8188 C.3     1  UNL1        0.0308
     29 C          63.5747   83.2607   13.4488 C.ar    1  UNL1        0.0162
@<TRIPOS>BOND
     1    22    23    1
     2    23    24   ar
     3    24    25   ar
     4    25    26   ar
     5    26    27   ar
     6    27    28    1
     7    27    29   ar
     8    29    21    1
     9    21    19    1
    10    19     1    1
    11     1     2    2
    12     2     3    1
    13     3    12    1
    14    12    13   ar
    15    13    14   ar
    16    14    15   ar
    17    15    16   ar
    18    16    17   ar
    19    17    18    2
    20     3     4    2
    21     4     5    1
    22     5     6    2
    23     6     7    1
    24     6     8    1
    25     8     9    1
    26     8    10    2
    27    10    11    1
    28    29    23   ar
    29    11     1    1
    30    17    12   ar
    31    11     5    1
    32    19    20    1
@<TRIPOS>MOLECULE
*****
 29 32 0 0 0
SMALL
GASTEIGER

@<TRIPOS>ATOM
      1 C          62.2905   88.1130   11.7323 C.2     1  UNL1        0.3257
      2 N          62.8114   86.8406   12.3320 N.2     1  UNL1       -0.0236
      3 C          62.5430   85.5284   11.6568 C.2     1  UNL1        0.2640
      4 C          61.7537   85.4886   10.3819 C.2     1  UNL1        0.0638
      5 C          61.2328   86.7610    9.7822 C.2     1  UNL1        0.0139
      6 C          60.4304   87.0323    8.5442 C.2     1  UNL1       -0.0101
      7 C          59.9414   86.0042    7.5676 C.3     1  UNL1        0.0320
      8 C          60.2030   88.5123    8.4543 C.2     1  UNL1        0.0509
      9 C          59.4465   89.2239    7.3720 C.3     1  UNL1        0.0513
     10 N          60.8648   89.1556    9.6367 N.2     1  UNL1       -0.2603
     11 C          61.5012   88.0732   10.4574 C.3     1  UNL1        0.2296
     12 N          63.0639   84.2559   12.2565 N.ar    1  UNL1       -0.2369
     13 C          63.9034   83.3265   11.4310 C.ar    1  UNL1        0.0864
     14 C          64.4243   82.0541   12.0306 C.ar    1  UNL1        0.0194
     15 C          64.1056   81.7110   13.4557 C.ar    1  UNL1        0.0064
     16 C          63.2660   82.6404   14.2812 C.ar    1  UNL1        0.0612
     17 C          62.7452   83.9129   13.6815 C.ar    1  UNL1        0.2675
     18 O          61.9056   84.8423   14.5069 O.2     1  UNL1       -0.2665
     19 N          62.5590   89.4253   12.4076 N.pl3   1  UNL1       -0.2166
     20 H          62.1045   89.6462   13.2525 H       1  UNL1        0.2923
     21 C          63.5199   90.4010   11.7954 C.3     1  UNL1        0.2258
     22 C          63.9375   89.5637   14.6458 C.3     1  UNL1        0.0308
     23 C          64.6850   90.7407   14.0926 C.ar    1  UNL1       -0.0223
     24 C          65.6414   91.4991   14.9646 C.ar    1  UNL1       -0.0045
     25 C          66.3888   92.6760   14.4114 C.ar    1  UNL1       -0.0007
     26 C          66.1800   93.0946   12.9862 C.ar    1  UNL1       -0.0045
     27 C          65.2237   92.3363   12.1142 C.ar    1  UNL1       -0.0223
     28 C          65.0149   92.7550   10.6891 C.3     1  UNL1        0.0308
     29 C          64.4762   91.1593   12.6674 C.ar    1  UNL1        0.0162
@<TRIPOS>BOND
     1    22    23    1
     2    23    24   ar
     3    24    25   ar
     4    25    26   ar
     5    26    27   ar
     6    27    28    1
     7    27    29   ar
     8    29    21    1
     9    21    19    1
    10    19     1    1
    11     1     2    2
    12     2     3    1
    13     3    12    1
    14    12    13   ar
    15    13    14   ar
    16    14    15   ar
    17    15    16   ar
    18    16    17   ar
    19    17    18    2
    20     3     4    2
    21     4     5    1
    22     5     6    2
    23     6     7    1
    24     6     8    1
    25     8     9    1
    26     8    10    2
    27    10    11    1
    28    29    23   ar
    29    11     1    1
    30    17    12   ar
    31    11     5    1
    32    19    20    1
@<TRIPOS>MOLECULE
*****
 29 32 0 0 0
SMALL
GASTEIGER

@<TRIPOS>ATOM
      1 C          63.4727   86.8246   13.2707 C.2     1  UNL1        0.3257
      2 N          62.6699   86.4049   12.0752 N.2     1  UNL1       -0.0236
      3 C          62.2600   87.4225   11.0523 C.2     1  UNL1        0.2640
      4 C          62.6530   88.8598   11.2249 C.2     1  UNL1        0.0638
      5 C          63.4558   89.2795   12.4204 C.2     1  UNL1        0.0139
      6 C          63.9857   90.6135   12.8555 C.2     1  UNL1       -0.0101
      7 C          63.8092   91.9127   12.1268 C.3     1  UNL1        0.0320
      8 C          64.7232   90.4204   14.1474 C.2     1  UNL1        0.0509
      9 C          65.4136   91.4926   14.9373 C.3     1  UNL1        0.0513
     10 N          64.6490   88.9670   14.5107 N.2     1  UNL1       -0.2603
     11 C          63.8657   88.2618   13.4433 C.3     1  UNL1        0.2296
     12 N          61.4571   87.0028    9.8567 N.ar    1  UNL1       -0.2369
     13 C          62.0657   86.1019    8.8233 C.ar    1  UNL1        0.0864
     14 C          61.2629   85.6822    7.6278 C.ar    1  UNL1        0.0194
     15 C          59.8514   86.1635    7.4656 C.ar    1  UNL1        0.0064
     16 C          59.2429   87.0645    8.4990 C.ar    1  UNL1        0.0612
     17 C          60.0458   87.4842    9.6946 C.ar    1  UNL1        0.2675
     18 O          59.4372   88.3851   10.7280 O.2     1  UNL1       -0.2665
     19 N          63.8827   85.8069   14.2937 N.pl3   1  UNL1       -0.2166
     20 H          63.7506   85.9912   15.2517 H       1  UNL1        0.2923
     21 C          64.4939   84.5086   13.8569 C.3     1  UNL1        0.2258
     22 C          62.5822   83.5532   15.9623 C.3     1  UNL1        0.0308
     23 C          62.6632   82.8418   14.6443 C.ar    1  UNL1       -0.0223
     24 C          61.7882   81.6526   14.3788 C.ar    1  UNL1       -0.0045
     25 C          61.8692   80.9411   13.0608 C.ar    1  UNL1       -0.0007
     26 C          62.8251   81.4188   12.0081 C.ar    1  UNL1       -0.0045
     27 C          63.7000   82.6080   12.2735 C.ar    1  UNL1       -0.0223
     28 C          64.6558   83.0857   11.2208 C.3     1  UNL1        0.0308
     29 C          63.6190   83.3195   13.5916 C.ar    1  UNL1        0.0162
@<TRIPOS>BOND
     1    22    23    1
     2    23    24   ar
     3    24    25   ar
     4    25    26   ar
     5    26    27   ar
     6    27    28    1
     7    27    29   ar
     8    29    21    1
     9    21    19    1
    10    19     1    1
    11     1     2    2
    12     2     3    1
    13     3    12    1
    14    12    13   ar
    15    13    14   ar
    16    14    15   ar
    17    15    16   ar
    18    16    17   ar
    19    17    18    2
    20     3     4    2
    21     4     5    1
    22     5     6    2
    23     6     7    1
    24     6     8    1
    25     8     9    1
    26     8    10    2
    27    10    11    1
    28    29    23   ar
    29    11     1    1
    30    17    12   ar
    31    11     5    1
    32    19    20    1
@<TRIPOS>MOLECULE
*****
 29 32 0 0 0
SMALL
GASTEIGER

@<TRIPOS>ATOM
      1 C          63.5772   87.0977   13.5797 C.2     1  UNL1        0.3257
      2 N          64.2748   88.1767   14.3537 N.2     1  UNL1       -0.0236
      3 C          64.2477   89.5922   13.8582 C.2     1  UNL1        0.2640
      4 C          63.5230   89.9287   12.5887 C.2     1  UNL1        0.0638
      5 C          62.8255   88.8498   11.8147 C.2     1  UNL1        0.0139
      6 C          62.0362   88.8795   10.5395 C.2     1  UNL1       -0.0101
      7 C          61.7567   90.0932    9.7037 C.3     1  UNL1        0.0320
      8 C          61.5755   87.4823   10.2469 C.2     1  UNL1        0.0509
      9 C          60.7543   87.0536    9.0670 C.3     1  UNL1        0.0513
     10 N          62.0800   86.5890   11.3412 N.2     1  UNL1       -0.2603
     11 C          62.8526   87.4343   12.3102 C.3     1  UNL1        0.2296
     12 N          64.9453   90.6713   14.6322 N.ar    1  UNL1       -0.2369
     13 C          66.2496   91.2243   14.1393 C.ar    1  UNL1        0.0864
     14 C          66.9472   92.3033   14.9133 C.ar    1  UNL1        0.0194
     15 C          66.3404   92.8294   16.1802 C.ar    1  UNL1        0.0064
     16 C          65.0361   92.2765   16.6732 C.ar    1  UNL1        0.0612
     17 C          64.3385   91.1974   15.8991 C.ar    1  UNL1        0.2675
     18 O          63.0342   90.6445   16.3920 O.2     1  UNL1       -0.2665
     19 N          63.6043   85.6821   14.0751 N.pl3   1  UNL1       -0.2166
     20 H          63.2224   85.4612   14.9553 H       1  UNL1        0.2923
     21 C          64.2133   84.6031   13.2296 C.3     1  UNL1        0.2258
     22 C          62.6987   83.4983   15.5717 C.3     1  UNL1        0.0308
     23 C          62.7878   82.7117   14.2976 C.ar    1  UNL1       -0.0223
     24 C          62.1196   81.3727   14.1945 C.ar    1  UNL1       -0.0045
     25 C          62.2087   80.5862   12.9204 C.ar    1  UNL1       -0.0007
     26 C          62.9659   81.1386   11.7493 C.ar    1  UNL1       -0.0045
     27 C          63.6341   82.4776   11.8524 C.ar    1  UNL1       -0.0223
     28 C          64.3914   83.0300   10.6813 C.3     1  UNL1        0.0308
     29 C          63.5451   83.2642   13.1265 C.ar    1  UNL1        0.0162
@<TRIPOS>BOND
     1    22    23    1
     2    23    24   ar
     3    24    25   ar
     4    25    26   ar
     5    26    27   ar
     6    27    28    1
     7    27    29   ar
     8    29    21    1
     9    21    19    1
    10    19     1    1
    11     1     2    2
    12     2     3    1
    13     3    12    1
    14    12    13   ar
    15    13    14   ar
    16    14    15   ar
    17    15    16   ar
    18    16    17   ar
    19    17    18    2
    20     3     4    2
    21     4     5    1
    22     5     6    2
    23     6     7    1
    24     6     8    1
    25     8     9    1
    26     8    10    2
    27    10    11    1
    28    29    23   ar
    29    11     1    1
    30    17    12   ar
    31    11     5    1
    32    19    20    1
@<TRIPOS>MOLECULE
*****
 29 32 0 0 0
SMALL
GASTEIGER

@<TRIPOS>ATOM
      1 C          63.5674   87.1274   13.5761 C.2     1  UNL1        0.3257
      2 N          64.2734   88.1986   14.3532 N.2     1  UNL1       -0.0236
      3 C          64.2675   89.6137   13.8557 C.2     1  UNL1        0.2640
      4 C          63.5555   89.9575   12.5810 C.2     1  UNL1        0.0638
      5 C          62.8495   88.8863   11.8038 C.2     1  UNL1        0.0139
      6 C          62.0690   88.9241   10.5234 C.2     1  UNL1       -0.0101
      7 C          61.8104   90.1402    9.6842 C.3     1  UNL1        0.0320
      8 C          61.5926   87.5324   10.2296 C.2     1  UNL1        0.0509
      9 C          60.7739   87.1125    9.0449 C.3     1  UNL1        0.0513
     10 N          62.0787   86.6345   11.3285 N.2     1  UNL1       -0.2603
     11 C          62.8555   87.4713   12.3014 C.3     1  UNL1        0.2296
     12 N          64.9735   90.6850   14.6329 N.ar    1  UNL1       -0.2369
     13 C          66.2864   91.2229   14.1462 C.ar    1  UNL1        0.0864
     14 C          66.9925   92.2941   14.9233 C.ar    1  UNL1        0.0194
     15 C          66.3856   92.8275   16.1871 C.ar    1  UNL1        0.0064
     16 C          65.0727   92.2896   16.6738 C.ar    1  UNL1        0.0612
     17 C          64.3666   91.2183   15.8966 C.ar    1  UNL1        0.2675
     18 O          63.0537   90.6804   16.3833 O.2     1  UNL1       -0.2665
     19 N          63.5734   85.7123   14.0736 N.pl3   1  UNL1       -0.2166
     20 H          63.1733   85.4958   14.9467 H       1  UNL1        0.2923
     21 C          64.1889   84.6271   13.2409 C.3     1  UNL1        0.2258
     22 C          64.4026   83.0274   10.7120 C.3     1  UNL1        0.0308
     23 C          63.6282   82.4877   11.8777 C.ar    1  UNL1       -0.0223
     24 C          62.9606   81.1480   11.7790 C.ar    1  UNL1       -0.0045
     25 C          62.1861   80.6083   12.9447 C.ar    1  UNL1       -0.0007
     26 C          62.0792   81.4082   14.2091 C.ar    1  UNL1       -0.0045
     27 C          62.7468   82.7478   14.3079 C.ar    1  UNL1       -0.0223
     28 C          62.6400   83.5476   15.5723 C.3     1  UNL1        0.0308
     29 C          63.5213   83.2875   13.1421 C.ar    1  UNL1        0.0162
@<TRIPOS>BOND
     1    22    23    1
     2    23    24   ar
     3    24    25   ar
     4    25    26   ar
     5    26    27   ar
     6    27    28    1
     7    27    29   ar
     8    29    21    1
     9    21    19    1
    10    19     1    1
    11     1     2    2
    12     2     3    1
    13     3    12    1
    14    12    13   ar
    15    13    14   ar
    16    14    15   ar
    17    15    16   ar
    18    16    17   ar
    19    17    18    2
    20     3     4    2
    21     4     5    1
    22     5     6    2
    23     6     7    1
    24     6     8    1
    25     8     9    1
    26     8    10    2
    27    10    11    1
    28    29    23   ar
    29    11     1    1
    30    17    12   ar
    31    11     5    1
    32    19    20    1
@<TRIPOS>MOLECULE
*****
 29 32 0 0 0
SMALL
GASTEIGER

@<TRIPOS>ATOM
      1 C          62.2818   86.9634   11.9858 C.2     1  UNL1        0.3257
      2 N          63.1591   88.0458   12.5414 N.2     1  UNL1       -0.0236
      3 C          63.1889   89.3960   11.8888 C.2     1  UNL1        0.2640
      4 C          62.3414   89.6638   10.6805 C.2     1  UNL1        0.0638
      5 C          61.4640   88.5815   10.1249 C.2     1  UNL1        0.0139
      6 C          60.5261   88.5514    8.9547 C.2     1  UNL1       -0.0101
      7 C          60.2467   89.6902    8.0192 C.3     1  UNL1        0.0320
      8 C          59.9166   87.1826    8.8841 C.2     1  UNL1        0.0509
      9 C          58.9208   86.7123    7.8657 C.3     1  UNL1        0.0513
     10 N          60.4779   86.3667   10.0107 N.2     1  UNL1       -0.2603
     11 C          61.4342   87.2313   10.7775 C.3     1  UNL1        0.2296
     12 N          64.0662   90.4784   12.4444 N.ar    1  UNL1       -0.2369
     13 C          64.4674   91.6365   11.5795 C.ar    1  UNL1        0.0864
     14 C          65.3447   92.7189   12.1351 C.ar    1  UNL1        0.0194
     15 C          65.8209   92.6433   13.5555 C.ar    1  UNL1        0.0064
     16 C          65.4198   91.4852   14.4203 C.ar    1  UNL1        0.0612
     17 C          64.5424   90.4028   13.8647 C.ar    1  UNL1        0.2675
     18 O          64.1413   89.2447   14.7296 O.2     1  UNL1       -0.2665
     19 N          62.2519   85.6131   12.6385 N.pl3   1  UNL1       -0.2166
     20 H          61.4586   85.3302   13.1483 H       1  UNL1        0.2923
     21 C          63.4308   84.6940   12.5144 C.3     1  UNL1        0.2258
     22 C          63.9016   83.3681    9.8648 C.3     1  UNL1        0.0308
     23 C          63.4530   82.5537   11.0418 C.ar    1  UNL1       -0.0223
     24 C          63.2398   81.0762   10.8940 C.ar    1  UNL1       -0.0045
     25 C          62.7912   80.2618   12.0710 C.ar    1  UNL1       -0.0007
     26 C          62.5557   80.9247   13.3958 C.ar    1  UNL1       -0.0045
     27 C          62.7689   82.4021   13.5436 C.ar    1  UNL1       -0.0223
     28 C          62.5335   83.0650   14.8684 C.3     1  UNL1        0.0308
     29 C          63.2176   83.2166   12.3666 C.ar    1  UNL1        0.0162
@<TRIPOS>BOND
     1    22    23    1
     2    23    24   ar
     3    24    25   ar
     4    25    26   ar
     5    26    27   ar
     6    27    28    1
     7    27    29   ar
     8    29    21    1
     9    21    19    1
    10    19     1    1
    11     1     2    2
    12     2     3    1
    13     3    12    1
    14    12    13   ar
    15    13    14   ar
    16    14    15   ar
    17    15    16   ar
    18    16    17   ar
    19    17    18    2
    20     3     4    2
    21     4     5    1
    22     5     6    2
    23     6     7    1
    24     6     8    1
    25     8     9    1
    26     8    10    2
    27    10    11    1
    28    29    23   ar
    29    11     1    1
    30    17    12   ar
    31    11     5    1
    32    19    20    1
@<TRIPOS>MOLECULE
*****
 29 32 0 0 0
SMALL
GASTEIGER

@<TRIPOS>ATOM
      1 C          63.1743   87.8222   12.6427 C.2     1  UNL1        0.3257
      2 N          62.3355   88.1281   11.4373 N.2     1  UNL1       -0.0236
      3 C          61.6648   87.0150   10.6883 C.2     1  UNL1        0.2640
      4 C          61.8329   85.5960   11.1446 C.2     1  UNL1        0.0638
      5 C          62.6716   85.2901   12.3499 C.2     1  UNL1        0.0139
      6 C          63.0172   83.9991   13.0309 C.2     1  UNL1       -0.0101
      7 C          62.5589   82.6327   12.6150 C.3     1  UNL1        0.0320
      8 C          63.9015   84.3142   14.2008 C.2     1  UNL1        0.0509
      9 C          64.4828   83.3183   15.1602 C.3     1  UNL1        0.0513
     10 N          64.1025   85.8001   14.2429 N.2     1  UNL1       -0.2603
     11 C          63.3423   86.4032   13.0990 C.3     1  UNL1        0.2296
     12 N          60.8260   87.3208    9.4829 N.ar    1  UNL1       -0.2369
     13 C          60.4722   86.2278    8.5184 C.ar    1  UNL1        0.0864
     14 C          59.6335   86.5336    7.3131 C.ar    1  UNL1        0.0194
     15 C          59.1484   87.9325    7.0722 C.ar    1  UNL1        0.0064
     16 C          59.5021   89.0255    8.0366 C.ar    1  UNL1        0.0612
     17 C          60.3409   88.7196    9.2420 C.ar    1  UNL1        0.2675
     18 O          60.6947   89.8126   10.2065 O.2     1  UNL1       -0.2665
     19 N          63.8450   88.9354   13.3918 N.pl3   1  UNL1       -0.2166
     20 H          64.5563   88.7328   14.0417 H       1  UNL1        0.2923
     21 C          63.4321   90.3571   13.1507 C.3     1  UNL1        0.2258
     22 C          63.3785   91.3017   10.3037 C.3     1  UNL1        0.0308
     23 C          64.4134   91.8327   11.2508 C.ar    1  UNL1       -0.0223
     24 C          65.4216   92.8360   10.7744 C.ar    1  UNL1       -0.0045
     25 C          66.4566   93.3670   11.7214 C.ar    1  UNL1       -0.0007
     26 C          66.4833   92.8947   13.1449 C.ar    1  UNL1       -0.0045
     27 C          65.4752   91.8914   13.6213 C.ar    1  UNL1       -0.0223
     28 C          65.5020   91.4192   15.0447 C.3     1  UNL1        0.0308
     29 C          64.4402   91.3604   12.6742 C.ar    1  UNL1        0.0162
@<TRIPOS>BOND
     1    22    23    1
     2    23    24   ar
     3    24    25   ar
     4    25    26   ar
     5    26    27   ar
     6    27    28    1
     7    27    29   ar
     8    29    21    1
     9    21    19    1
    10    19     1    1
    11     1     2    2
    12     2     3    1
    13     3    12    1
    14    12    13   ar
    15    13    14   ar
    16    14    15   ar
    17    15    16   ar
    18    16    17   ar
    19    17    18    2
    20     3     4    2
    21     4     5    1
    22     5     6    2
    23     6     7    1
    24     6     8    1
    25     8     9    1
    26     8    10    2
    27    10    11    1
    28    29    23   ar
    29    11     1    1
    30    17    12   ar
    31    11     5    1
    32    19    20    1
@<TRIPOS>MOLECULE
*****
 29 32 0 0 0
SMALL
GASTEIGER

@<TRIPOS>ATOM
      1 C          62.2714   86.9408   12.0248 C.2     1  UNL1        0.3257
      2 N          63.1549   88.0077   12.6002 N.2     1  UNL1       -0.0236
      3 C          63.1983   89.3671   11.9678 C.2     1  UNL1        0.2640
      4 C          62.3581   89.6597   10.7601 C.2     1  UNL1        0.0638
      5 C          61.4746   88.5928   10.1847 C.2     1  UNL1        0.0139
      6 C          60.5416   88.5877    9.0103 C.2     1  UNL1       -0.0101
      7 C          60.2753   89.7425    8.0908 C.3     1  UNL1        0.0320
      8 C          59.9216   87.2250    8.9167 C.2     1  UNL1        0.0509
      9 C          58.9264   86.7779    7.8872 C.3     1  UNL1        0.0513
     10 N          60.4714   86.3879   10.0334 N.2     1  UNL1       -0.2603
     11 C          61.4313   87.2333   10.8171 C.3     1  UNL1        0.2296
     12 N          64.0818   90.4342   12.5432 N.ar    1  UNL1       -0.2369
     13 C          64.6011   90.3029   13.9443 C.ar    1  UNL1        0.0864
     14 C          65.4846   91.3699   14.5197 C.ar    1  UNL1        0.0194
     15 C          65.8488   92.5681   13.6940 C.ar    1  UNL1        0.0064
     16 C          65.3294   92.6993   12.2929 C.ar    1  UNL1        0.0612
     17 C          64.4459   91.6323   11.7175 C.ar    1  UNL1        0.2675
     18 O          63.9265   91.7635   10.3164 O.2     1  UNL1       -0.2665
     19 N          62.2281   85.5812   12.6571 N.pl3   1  UNL1       -0.2166
     20 H          61.4371   85.3034   13.1733 H       1  UNL1        0.2923
     21 C          63.3899   84.6450   12.5030 C.3     1  UNL1        0.2258
     22 C          62.4015   83.2247   14.9537 C.3     1  UNL1        0.0308
     23 C          62.6654   82.4530   13.6949 C.ar    1  UNL1       -0.0223
     24 C          62.4352   80.9711   13.6613 C.ar    1  UNL1       -0.0045
     25 C          62.6992   80.1994   12.4025 C.ar    1  UNL1       -0.0007
     26 C          63.1934   80.9095   11.1771 C.ar    1  UNL1       -0.0045
     27 C          63.4236   82.3914   11.2106 C.ar    1  UNL1       -0.0223
     28 C          63.9178   83.1015    9.9852 C.3     1  UNL1        0.0308
     29 C          63.1596   83.1632   12.4695 C.ar    1  UNL1        0.0162
@<TRIPOS>BOND
     1    22    23    1
     2    23    24   ar
     3    24    25   ar
     4    25    26   ar
     5    26    27   ar
     6    27    28    1
     7    27    29   ar
     8    29    21    1
     9    21    19    1
    10    19     1    1
    11     1     2    2
    12     2     3    1
    13     3    12    1
    14    12    13   ar
    15    13    14   ar
    16    14    15   ar
    17    15    16   ar
    18    16    17   ar
    19    17    18    2
    20     3     4    2
    21     4     5    1
    22     5     6    2
    23     6     7    1
    24     6     8    1
    25     8     9    1
    26     8    10    2
    27    10    11    1
    28    29    23   ar
    29    11     1    1
    30    17    12   ar
    31    11     5    1
    32    19    20    1
