@<TRIPOS>MOLECULE
*****
 33 36 0 0 0
SMALL
GASTEIGER

@<TRIPOS>ATOM
      1 C          64.4895   89.2314   14.5814 C.3     1  UNL1        0.0174
      2 C          63.8561   88.1929   13.7035 C.3     1  UNL1        0.0583
      3 C          64.0859   86.7365   13.9790 C.3     1  UNL1        0.0221
      4 C          63.4526   85.6981   13.1011 C.3     1  UNL1        0.0444
      5 C          63.4977   84.1990   13.1268 C.ar    1  UNL1       -0.0077
      6 C          64.1915   83.2312   14.0390 C.ar    1  UNL1       -0.0030
      7 C          64.0500   81.7550   13.8137 C.ar    1  UNL1       -0.0002
      8 C          63.2148   81.2466   12.6762 C.ar    1  UNL1        0.0012
      9 C          62.5210   82.2143   11.7640 C.ar    1  UNL1        0.0140
     10 C          62.6625   83.6905   11.9893 C.ar    1  UNL1        0.0406
     11 N          62.1011   84.8754   11.2607 N.pl3   1  UNL1       -0.3326
     12 C          62.5894   86.1162   11.9478 C.3     1  UNL1        0.0923
     13 C          62.3596   87.5726   11.6723 C.3     1  UNL1        0.1029
     14 N          62.9929   88.6110   12.5501 N.3     1  UNL1       -0.2679
     15 H          61.5151   84.8442   10.4702 H       1  UNL1        0.1468
     16 C          61.4965   87.9907   10.5190 C.ar    1  UNL1        0.0487
     17 C          61.8000   87.4943    9.1364 C.ar    1  UNL1        0.1396
     18 F          62.9667   86.5798    8.9073 F       1  UNL1       -0.2044
     19 C          60.9370   87.9123    7.9830 C.ar    1  UNL1        0.0295
     20 C          59.7703   88.8269    8.2122 C.ar    1  UNL1        0.0045
     21 C          59.4667   89.3233    9.5947 C.ar    1  UNL1        0.0295
     22 C          60.3299   88.9052   10.7482 C.ar    1  UNL1        0.1396
     23 F          60.0263   89.4016   12.1307 F       1  UNL1       -0.2044
     24 C          58.9071   89.2450    7.0589 C.2     1  UNL1        0.0013
     25 C          59.1139   90.5833    6.4138 C.2     1  UNL1        0.0151
     26 C          58.2508   91.0014    5.2605 C.2     1  UNL1        0.0729
     27 O          56.7731   90.7464    5.2985 O.co2   1  UNL1       -0.5446
     28 O          58.8653   91.6744    4.0692 O.co2   1  UNL1       -0.5446
     29 C          62.7631   90.0675   12.2747 C.3     1  UNL1        0.1052
     30 C          63.8092   90.8696   11.5588 C.3     1  UNL1        0.1486
     31 C          64.4261   91.2397   12.8750 C.3     1  UNL1        0.0368
     32 C          63.1922   90.4995   10.2426 C.3     1  UNL1        0.0368
     33 F          64.8552   91.6716   10.8429 F       1  UNL1       -0.2386
@<TRIPOS>UNITY_ATOM_ATTR
27 1
charge -1
@<TRIPOS>BOND
     1     2     1    1
     2     2     3    1
     3     3     4    1
     4     4     5    1
     5     5     6   ar
     6     6     7   ar
     7     7     8   ar
     8     8     9   ar
     9     9    10   ar
    10    10    11    1
    11    11    12    1
    12    12    13    1
    13    13    16    1
    14    16    17   ar
    15    17    18    1
    16    17    19   ar
    17    19    20   ar
    18    20    24    1
    19    24    25    2
    20    25    26    1
    21    26    27   ar
    22    26    28   ar
    23    20    21   ar
    24    21    22   ar
    25    22    23    1
    26    13    14    1
    27    14    29    1
    28    29    30    1
    29    30    31    1
    30    30    32    1
    31    30    33    1
    32    14     2    1
    33    12     4    1
    34    22    16   ar
    35    10     5   ar
    36    11    15    1
@<TRIPOS>MOLECULE
*****
 33 36 0 0 0
SMALL
GASTEIGER

@<TRIPOS>ATOM
      1 C          64.8234   88.4856   14.6209 C.3     1  UNL1        0.0174
      2 C          64.0935   87.4996   13.7576 C.3     1  UNL1        0.0583
      3 C          64.2023   86.0305   14.0403 C.3     1  UNL1        0.0221
      4 C          63.4724   85.0445   13.1771 C.3     1  UNL1        0.0444
      5 C          63.3906   83.5472   13.2125 C.ar    1  UNL1       -0.0077
      6 C          64.0110   82.5294   14.1231 C.ar    1  UNL1       -0.0030
      7 C          63.7421   81.0692   13.9095 C.ar    1  UNL1       -0.0002
      8 C          62.8528   80.6269   12.7854 C.ar    1  UNL1        0.0012
      9 C          62.2324   81.6448   11.8749 C.ar    1  UNL1        0.0140
     10 C          62.5013   83.1049   12.0885 C.ar    1  UNL1        0.0406
     11 N          62.0335   84.3289   11.3584 N.pl3   1  UNL1       -0.3326
     12 C          62.6337   85.5277   12.0312 C.3     1  UNL1        0.0923
     13 C          62.5249   86.9968   11.7485 C.3     1  UNL1        0.1029
     14 N          63.2548   87.9828   12.6117 N.3     1  UNL1       -0.2679
     15 H          61.4373   84.3430   10.5751 H       1  UNL1        0.1468
     16 C          61.6862   87.4800   10.6026 C.ar    1  UNL1        0.0487
     17 C          60.5477   88.4243   10.8522 C.ar    1  UNL1        0.1396
     18 F          60.2481   88.8853   12.2478 F       1  UNL1       -0.2044
     19 C          59.7090   88.9074    9.7064 C.ar    1  UNL1        0.0295
     20 C          60.0087   88.4463    8.3109 C.ar    1  UNL1        0.0045
     21 C          61.1471   87.5021    8.0612 C.ar    1  UNL1        0.0295
     22 C          61.9859   87.0189    9.2071 C.ar    1  UNL1        0.1396
     23 F          63.1243   86.0746    8.9575 F       1  UNL1       -0.2044
     24 C          59.1699   88.9295    7.1650 C.2     1  UNL1        0.0013
     25 C          59.3682   90.3135    6.6216 C.2     1  UNL1        0.0151
     26 C          58.5295   90.7966    5.4757 C.2     1  UNL1        0.0729
     27 O          59.1793   91.4626    4.2990 O.co2   1  UNL1       -0.5446
     28 O          57.0411   90.6139    5.5063 O.co2   1  UNL1       -0.5446
     29 C          63.1459   89.4519   12.3290 C.3     1  UNL1        0.1052
     30 C          63.3371   90.4450   13.4367 C.3     1  UNL1        0.1486
     31 C          64.3903   91.1435   12.6288 C.3     1  UNL1        0.0368
     32 C          62.2839   89.7465   14.2447 C.3     1  UNL1        0.0368
     33 F          63.5284   91.4381   14.5445 F       1  UNL1       -0.2386
@<TRIPOS>UNITY_ATOM_ATTR
27 1
charge -1
@<TRIPOS>BOND
     1     2     1    1
     2     2     3    1
     3     3     4    1
     4     4     5    1
     5     5     6   ar
     6     6     7   ar
     7     7     8   ar
     8     8     9   ar
     9     9    10   ar
    10    10    11    1
    11    11    12    1
    12    12    13    1
    13    13    16    1
    14    16    17   ar
    15    17    18    1
    16    17    19   ar
    17    19    20   ar
    18    20    24    1
    19    24    25    2
    20    25    26    1
    21    26    27   ar
    22    26    28   ar
    23    20    21   ar
    24    21    22   ar
    25    22    23    1
    26    13    14    1
    27    14    29    1
    28    29    30    1
    29    30    31    1
    30    30    32    1
    31    30    33    1
    32    14     2    1
    33    12     4    1
    34    22    16   ar
    35    10     5   ar
    36    11    15    1
@<TRIPOS>MOLECULE
*****
 33 36 0 0 0
SMALL
GASTEIGER

@<TRIPOS>ATOM
      1 C          59.8117   87.4099    9.3523 C.3     1  UNL1        0.0174
      2 C          60.8820   87.0260   10.3307 C.3     1  UNL1        0.0583
      3 C          61.1641   85.5783   10.6039 C.3     1  UNL1        0.0221
      4 C          62.2343   85.1944   11.5823 C.3     1  UNL1        0.0444
      5 C          62.7334   83.8600   12.0516 C.ar    1  UNL1       -0.0077
      6 C          62.3310   82.4581   11.7012 C.ar    1  UNL1       -0.0030
      7 C          63.0252   81.2953   12.3461 C.ar    1  UNL1       -0.0002
      8 C          64.1217   81.5343   13.3414 C.ar    1  UNL1        0.0012
      9 C          64.5240   82.9362   13.6917 C.ar    1  UNL1        0.0140
     10 C          63.8299   84.0990   13.0468 C.ar    1  UNL1        0.0406
     11 N          64.0084   85.5812   13.1927 N.pl3   1  UNL1       -0.3326
     12 C          63.0224   86.2582   12.2875 C.3     1  UNL1        0.0923
     13 C          62.7402   87.7059   12.0144 C.3     1  UNL1        0.1029
     14 N          61.6700   88.0898   11.0360 N.3     1  UNL1       -0.2679
     15 H          64.6587   86.0307   13.7794 H       1  UNL1        0.1468
     16 C          63.5282   88.7697   12.7196 C.ar    1  UNL1        0.0487
     17 C          63.9396   90.0104   11.9837 C.ar    1  UNL1        0.1396
     18 F          63.5629   90.1872   10.5426 F       1  UNL1       -0.2044
     19 C          64.7276   91.0742   12.6888 C.ar    1  UNL1        0.0295
     20 C          65.1043   90.8974   14.1300 C.ar    1  UNL1        0.0045
     21 C          64.6929   89.6567   14.8659 C.ar    1  UNL1        0.0295
     22 C          63.9049   88.5929   14.1606 C.ar    1  UNL1        0.1396
     23 F          63.4935   87.3522   14.8966 F       1  UNL1       -0.2044
     24 C          65.8923   91.9612   14.8352 C.2     1  UNL1        0.0013
     25 C          67.3862   91.9984   14.7050 C.2     1  UNL1        0.0151
     26 C          68.1742   93.0622   15.4103 C.2     1  UNL1        0.0729
     27 O          69.5854   93.3516   14.9921 O.co2   1  UNL1       -0.5446
     28 O          67.5511   93.8365   16.5336 O.co2   1  UNL1       -0.5446
     29 C          61.3878   89.5375   10.7628 C.3     1  UNL1        0.1052
     30 C          60.0526   90.1214   11.1181 C.3     1  UNL1        0.1486
     31 C          59.8404   90.5084    9.6845 C.3     1  UNL1        0.0368
     32 C          60.2648   89.7343   12.5516 C.3     1  UNL1        0.0368
     33 F          58.7174   90.7053   11.4733 F       1  UNL1       -0.2386
@<TRIPOS>UNITY_ATOM_ATTR
27 1
charge -1
@<TRIPOS>BOND
     1     2     1    1
     2     2     3    1
     3     3     4    1
     4     4     5    1
     5     5     6   ar
     6     6     7   ar
     7     7     8   ar
     8     8     9   ar
     9     9    10   ar
    10    10    11    1
    11    11    12    1
    12    12    13    1
    13    13    16    1
    14    16    17   ar
    15    17    18    1
    16    17    19   ar
    17    19    20   ar
    18    20    24    1
    19    24    25    2
    20    25    26    1
    21    26    27   ar
    22    26    28   ar
    23    20    21   ar
    24    21    22   ar
    25    22    23    1
    26    13    14    1
    27    14    29    1
    28    29    30    1
    29    30    31    1
    30    30    32    1
    31    30    33    1
    32    14     2    1
    33    12     4    1
    34    22    16   ar
    35    10     5   ar
    36    11    15    1
@<TRIPOS>MOLECULE
*****
 33 36 0 0 0
SMALL
GASTEIGER

@<TRIPOS>ATOM
      1 C          64.9115   96.8543   -2.7273 C.3     1  UNL1        0.0174
      2 C          63.5708   96.1832   -2.6788 C.3     1  UNL1        0.0583
      3 C          62.7479   96.0607   -3.9269 C.3     1  UNL1        0.0221
      4 C          61.4072   95.3896   -3.8785 C.3     1  UNL1        0.0444
      5 C          60.3792   95.1234   -4.9380 C.ar    1  UNL1       -0.0077
      6 C          60.3442   95.4382   -6.4041 C.ar    1  UNL1       -0.0030
      7 C          59.1560   95.0399   -7.2285 C.ar    1  UNL1       -0.0002
      8 C          58.0030   94.3268   -6.5867 C.ar    1  UNL1        0.0012
      9 C          58.0380   94.0120   -5.1205 C.ar    1  UNL1        0.0140
     10 C          59.2262   94.4104   -4.2962 C.ar    1  UNL1        0.0406
     11 N          59.5415   94.2359   -2.8401 N.pl3   1  UNL1       -0.3326
     12 C          60.8895   94.8411   -2.5820 C.3     1  UNL1        0.0923
     13 C          61.7124   94.9636   -1.3338 C.3     1  UNL1        0.1029
     14 N          63.0531   95.6347   -1.3822 N.3     1  UNL1       -0.2679
     15 H          58.9650   93.8006   -2.1713 H       1  UNL1        0.1468
     16 C          61.1947   94.4151   -0.0373 C.ar    1  UNL1        0.0487
     17 C          61.2031   92.9352    0.2077 C.ar    1  UNL1        0.1396
     18 F          61.7292   92.0040   -0.8440 F       1  UNL1       -0.2044
     19 C          60.6854   92.3866    1.5042 C.ar    1  UNL1        0.0295
     20 C          60.1593   93.3179    2.5558 C.ar    1  UNL1        0.0045
     21 C          60.1509   94.7977    2.3109 C.ar    1  UNL1        0.0295
     22 C          60.6686   95.3463    1.0143 C.ar    1  UNL1        0.1396
     23 F          60.6602   96.8262    0.7694 F       1  UNL1       -0.2044
     24 C          59.6415   92.7694    3.8524 C.2     1  UNL1        0.0013
     25 C          58.4764   91.8247    3.8552 C.2     1  UNL1        0.0151
     26 C          57.9587   91.2762    5.1517 C.2     1  UNL1        0.0729
     27 O          56.4867   91.2956    5.4399 O.co2   1  UNL1       -0.5446
     28 O          58.9128   90.7082    6.1601 O.co2   1  UNL1       -0.5446
     29 C          63.8760   95.7572   -0.1341 C.3     1  UNL1        0.1052
     30 C          64.4223   94.5270    0.5278 C.3     1  UNL1        0.1486
     31 C          64.2368   95.1675    1.8714 C.3     1  UNL1        0.0368
     32 C          64.6079   93.8865   -0.8158 C.3     1  UNL1        0.0368
     33 F          64.9687   93.2968    1.1897 F       1  UNL1       -0.2386
@<TRIPOS>UNITY_ATOM_ATTR
27 1
charge -1
@<TRIPOS>BOND
     1     2     1    1
     2     2     3    1
     3     3     4    1
     4     4     5    1
     5     5     6   ar
     6     6     7   ar
     7     7     8   ar
     8     8     9   ar
     9     9    10   ar
    10    10    11    1
    11    11    12    1
    12    12    13    1
    13    13    16    1
    14    16    17   ar
    15    17    18    1
    16    17    19   ar
    17    19    20   ar
    18    20    24    1
    19    24    25    2
    20    25    26    1
    21    26    27   ar
    22    26    28   ar
    23    20    21   ar
    24    21    22   ar
    25    22    23    1
    26    13    14    1
    27    14    29    1
    28    29    30    1
    29    30    31    1
    30    30    32    1
    31    30    33    1
    32    14     2    1
    33    12     4    1
    34    22    16   ar
    35    10     5   ar
    36    11    15    1
@<TRIPOS>MOLECULE
*****
 33 36 0 0 0
SMALL
GASTEIGER

@<TRIPOS>ATOM
      1 C          64.1608   88.0937   14.1520 C.3     1  UNL1        0.0174
      2 C          63.4307   87.3991   13.0408 C.3     1  UNL1        0.0583
      3 C          62.6353   88.1982   12.0514 C.3     1  UNL1        0.0221
      4 C          61.9052   87.5037   10.9403 C.3     1  UNL1        0.0444
      5 C          61.0474   88.0228    9.8246 C.ar    1  UNL1       -0.0077
      6 C          60.6296   89.4118    9.4426 C.ar    1  UNL1       -0.0030
      7 C          59.7469   89.6280    8.2493 C.ar    1  UNL1       -0.0002
      8 C          59.2820   88.4551    7.4380 C.ar    1  UNL1        0.0012
      9 C          59.6998   87.0661    7.8200 C.ar    1  UNL1        0.0140
     10 C          60.5825   86.8499    9.0133 C.ar    1  UNL1        0.0406
     11 N          61.1530   85.6060    9.6276 N.pl3   1  UNL1       -0.3326
     12 C          61.9705   86.0101   10.8186 C.3     1  UNL1        0.0923
     13 C          62.7658   85.2110   11.8079 C.3     1  UNL1        0.1029
     14 N          63.4959   85.9055   12.9191 N.3     1  UNL1       -0.2679
     15 H          61.0151   84.6859    9.3056 H       1  UNL1        0.1468
     16 C          62.8311   83.7174   11.6862 C.ar    1  UNL1        0.0487
     17 C          63.5141   83.0901   10.5071 C.ar    1  UNL1        0.1396
     18 F          64.1318   83.9566    9.4499 F       1  UNL1       -0.2044
     19 C          63.5794   81.5965   10.3853 C.ar    1  UNL1        0.0295
     20 C          62.9617   80.7301   11.4426 C.ar    1  UNL1        0.0045
     21 C          62.2787   81.3574   12.6216 C.ar    1  UNL1        0.0295
     22 C          62.2134   82.8510   12.7434 C.ar    1  UNL1        0.1396
     23 F          61.5304   83.4783   13.9224 F       1  UNL1       -0.2044
     24 C          63.0270   79.2365   11.3209 C.2     1  UNL1        0.0013
     25 C          63.4957   78.6080   10.0421 C.2     1  UNL1        0.0151
     26 C          63.5609   77.1144    9.9203 C.2     1  UNL1        0.0729
     27 O          64.6287   76.4761    9.0821 O.co2   1  UNL1       -0.5446
     28 O          62.5585   76.2590   10.6367 O.co2   1  UNL1       -0.5446
     29 C          64.2913   85.1064   13.9084 C.3     1  UNL1        0.1052
     30 C          64.2470   85.4588   15.3657 C.3     1  UNL1        0.1486
     31 C          65.6826   85.8894   15.3052 C.3     1  UNL1        0.0368
     32 C          62.8115   85.0282   15.4263 C.3     1  UNL1        0.0368
     33 F          64.2028   85.8112   16.8231 F       1  UNL1       -0.2386
@<TRIPOS>UNITY_ATOM_ATTR
27 1
charge -1
@<TRIPOS>BOND
     1     2     1    1
     2     2     3    1
     3     3     4    1
     4     4     5    1
     5     5     6   ar
     6     6     7   ar
     7     7     8   ar
     8     8     9   ar
     9     9    10   ar
    10    10    11    1
    11    11    12    1
    12    12    13    1
    13    13    16    1
    14    16    17   ar
    15    17    18    1
    16    17    19   ar
    17    19    20   ar
    18    20    24    1
    19    24    25    2
    20    25    26    1
    21    26    27   ar
    22    26    28   ar
    23    20    21   ar
    24    21    22   ar
    25    22    23    1
    26    13    14    1
    27    14    29    1
    28    29    30    1
    29    30    31    1
    30    30    32    1
    31    30    33    1
    32    14     2    1
    33    12     4    1
    34    22    16   ar
    35    10     5   ar
    36    11    15    1
