@<TRIPOS>MOLECULE
*****
 32 34 0 0 0
SMALL
GASTEIGER

@<TRIPOS>ATOM
      1 C          63.5282   87.7261   16.0349 C.2     1  UNL1        0.2316
      2 O          63.1832   88.8865   16.9207 O.2     1  UNL1       -0.2744
      3 N          64.0615   87.9692   14.6542 N.am    1  UNL1       -0.2677
      4 H          64.2879   87.2077   14.0728 H       1  UNL1        0.1563
      5 C          64.2498   89.3726   14.1592 C.ar    1  UNL1        0.1555
      6 C          63.2963   90.1358   13.2883 C.ar    1  UNL1        0.0564
      7 C          63.8819   91.4941   13.0391 C.ar    1  UNL1        0.0985
      8 N          65.1973   91.5704   13.7559 N.ar    1  UNL1       -0.2421
      9 N          65.4247   90.2593   14.4481 N.ar    1  UNL1       -0.1536
     10 C          66.1229   92.7506   13.7768 C.3     1  UNL1        0.1728
     11 C          66.3198   93.5713   12.5369 C.ar    1  UNL1        0.0837
     12 C          66.7038   92.9046   11.2492 C.ar    1  UNL1        0.0174
     13 C          66.9007   93.7253   10.0092 C.ar    1  UNL1        0.0131
     14 C          66.7138   95.2128   10.0568 C.ar    1  UNL1        0.0875
     15 C          66.3298   95.8796   11.3445 C.ar    1  UNL1        0.1087
     16 N          66.1329   95.0588   12.5845 N.ar    1  UNL1       -0.2454
     17 C          66.9107   96.0336    8.8168 C.1     1  UNL1        0.1020
     18 N          67.1077   96.8543    7.5768 N.1     1  UNL1       -0.1908
     19 C          63.3399   86.3228   16.5299 C.3     1  UNL1        0.1117
     20 C          61.5895   81.8912   14.4568 C.3     1  UNL1        0.0342
     21 C          62.6471   82.9503   14.5559 C.ar    1  UNL1        0.0118
     22 C          62.4647   84.1070   15.4933 C.ar    1  UNL1       -0.0050
     23 C          63.5223   85.1660   15.5924 C.ar    1  UNL1       -0.0132
     24 C          64.7624   85.0683   14.7542 C.ar    1  UNL1       -0.0007
     25 C          64.9448   83.9116   13.8169 C.ar    1  UNL1        0.0363
     26 C          63.8872   82.8526   13.7177 C.ar    1  UNL1        0.1349
     27 O          64.0697   81.6958   12.7803 O.3     1  UNL1       -0.4669
     28 C          63.4598   81.7371   11.4105 C.3     1  UNL1        0.3081
     29 C          63.6159   82.9604   10.5565 C.3     1  UNL1        0.4380
     30 F          63.7721   84.1836    9.7025 F       1  UNL1       -0.1663
     31 F          62.3777   83.5456   11.1683 F       1  UNL1       -0.1663
     32 F          64.8542   82.3753    9.9447 F       1  UNL1       -0.1663
@<TRIPOS>BOND
     1    20    21    1
     2    21    22   ar
     3    22    23   ar
     4    23    19    1
     5    19     1    1
     6     1     2    2
     7     1     3   am
     8     3     5    1
     9     5     6   ar
    10     6     7   ar
    11     7     8   ar
    12     8    10    1
    13    10    11    1
    14    11    12   ar
    15    12    13   ar
    16    13    14   ar
    17    14    17    1
    18    17    18    3
    19    14    15   ar
    20    15    16   ar
    21     8     9   ar
    22    23    24   ar
    23    24    25   ar
    24    25    26   ar
    25    26    27    1
    26    27    28    1
    27    28    29    1
    28    29    30    1
    29    29    31    1
    30    29    32    1
    31    26    21   ar
    32     9     5   ar
    33    16    11   ar
    34     3     4    1
@<TRIPOS>MOLECULE
*****
 32 34 0 0 0
SMALL
GASTEIGER

@<TRIPOS>ATOM
      1 C          63.9866   89.7168   14.9812 C.2     1  UNL1        0.2316
      2 O          62.5218   89.6572   14.6632 O.2     1  UNL1       -0.2744
      3 N          64.8371   88.4904   14.8316 N.am    1  UNL1       -0.2677
      4 H          65.7984   88.5295   15.0404 H       1  UNL1        0.1563
      5 C          64.2229   87.2042   14.3641 C.ar    1  UNL1        0.1555
      6 C          64.2430   85.8982   15.1016 C.ar    1  UNL1        0.0564
      7 C          63.5133   84.8850   14.2702 C.ar    1  UNL1        0.0985
      8 N          63.0422   85.5649   13.0189 N.ar    1  UNL1       -0.2421
      9 N          63.4808   86.9982   13.0769 N.ar    1  UNL1       -0.1536
     10 C          62.2685   84.9241   11.9051 C.3     1  UNL1        0.1728
     11 C          61.6188   85.7766   10.8559 C.ar    1  UNL1        0.0837
     12 C          61.8272   85.4670    9.4030 C.ar    1  UNL1        0.0174
     13 C          61.1776   86.3196    8.3538 C.ar    1  UNL1        0.0131
     14 C          60.3194   87.4818    8.7573 C.ar    1  UNL1        0.0875
     15 C          60.1110   87.7914   10.2101 C.ar    1  UNL1        0.1087
     16 N          60.7607   86.9388   11.2594 N.ar    1  UNL1       -0.2454
     17 C          59.6697   88.3344    7.7080 C.1     1  UNL1        0.1020
     18 N          59.0200   89.1870    6.6587 N.1     1  UNL1       -0.1908
     19 C          64.6007   91.0030   15.4488 C.3     1  UNL1        0.1117
     20 C          65.1597   92.6165   10.5412 C.3     1  UNL1        0.0342
     21 C          65.4757   92.7616   12.0003 C.ar    1  UNL1        0.0118
     22 C          64.8803   91.8097   12.9950 C.ar    1  UNL1       -0.0050
     23 C          65.1962   91.9549   14.4541 C.ar    1  UNL1       -0.0132
     24 C          66.1077   93.0519   14.9186 C.ar    1  UNL1       -0.0007
     25 C          66.7032   94.0037   13.9240 C.ar    1  UNL1        0.0363
     26 C          66.3872   93.8586   12.4648 C.ar    1  UNL1        0.1349
     27 O          66.9827   94.8105   11.4702 O.3     1  UNL1       -0.4669
     28 C          66.2282   96.0424   11.0663 C.3     1  UNL1        0.3081
     29 C          65.9699   96.3218    9.6154 C.3     1  UNL1        0.4380
     30 F          65.7116   96.6012    8.1644 F       1  UNL1       -0.1663
     31 F          64.4947   96.3564    9.8846 F       1  UNL1       -0.1663
     32 F          67.4451   96.2872    9.3461 F       1  UNL1       -0.1663
@<TRIPOS>BOND
     1    20    21    1
     2    21    22   ar
     3    22    23   ar
     4    23    19    1
     5    19     1    1
     6     1     2    2
     7     1     3   am
     8     3     5    1
     9     5     6   ar
    10     6     7   ar
    11     7     8   ar
    12     8    10    1
    13    10    11    1
    14    11    12   ar
    15    12    13   ar
    16    13    14   ar
    17    14    17    1
    18    17    18    3
    19    14    15   ar
    20    15    16   ar
    21     8     9   ar
    22    23    24   ar
    23    24    25   ar
    24    25    26   ar
    25    26    27    1
    26    27    28    1
    27    28    29    1
    28    29    30    1
    29    29    31    1
    30    29    32    1
    31    26    21   ar
    32     9     5   ar
    33    16    11   ar
    34     3     4    1
@<TRIPOS>MOLECULE
*****
 32 34 0 0 0
SMALL
GASTEIGER

@<TRIPOS>ATOM
      1 C          63.8242   89.2929   15.4952 C.2     1  UNL1        0.2316
      2 O          62.8959   88.7542   16.5432 O.2     1  UNL1       -0.2744
      3 N          64.5727   88.3503   14.6001 N.am    1  UNL1       -0.2677
      4 H          65.1819   88.7038   13.9123 H       1  UNL1        0.1563
      5 C          64.3929   86.8689   14.7530 C.ar    1  UNL1        0.1555
      6 C          65.4859   85.8669   14.9798 C.ar    1  UNL1        0.0564
      7 C          64.8572   84.5082   15.0729 C.ar    1  UNL1        0.0985
      8 N          63.3756   84.6705   14.9037 N.ar    1  UNL1       -0.2421
      9 N          63.0887   86.1295   14.7060 N.ar    1  UNL1       -0.1536
     10 C          62.3594   83.5675   14.9279 C.3     1  UNL1        0.1728
     11 C          62.4565   82.4366   13.9474 C.ar    1  UNL1        0.0837
     12 C          62.8284   82.7109   12.5204 C.ar    1  UNL1        0.0174
     13 C          62.9255   81.5800   11.5399 C.ar    1  UNL1        0.0131
     14 C          62.6508   80.1746   11.9864 C.ar    1  UNL1        0.0875
     15 C          62.2789   79.9002   13.4134 C.ar    1  UNL1        0.1087
     16 N          62.1818   81.0312   14.3939 N.ar    1  UNL1       -0.2454
     17 C          62.7479   79.0436   11.0058 C.1     1  UNL1        0.1020
     18 N          62.8451   77.9126   10.0253 N.1     1  UNL1       -0.1908
     19 C          64.0039   90.7742   15.3423 C.3     1  UNL1        0.1117
     20 C          63.3787   91.3992   10.2219 C.3     1  UNL1        0.0342
     21 C          64.1616   91.6542   11.4757 C.ar    1  UNL1        0.0118
     22 C          63.6913   91.0867   12.7821 C.ar    1  UNL1       -0.0050
     23 C          64.4742   91.3418   14.0358 C.ar    1  UNL1       -0.0132
     24 C          65.7274   92.1644   13.9833 C.ar    1  UNL1       -0.0007
     25 C          66.1977   92.7319   12.6769 C.ar    1  UNL1        0.0363
     26 C          65.4148   92.4768   11.4231 C.ar    1  UNL1        0.1349
     27 O          65.8852   93.0444   10.1166 O.3     1  UNL1       -0.4669
     28 C          67.2896   93.5539    9.9825 C.3     1  UNL1        0.3081
     29 C          68.2721   92.8252    9.1143 C.3     1  UNL1        0.4380
     30 F          69.2546   92.0966    8.2462 F       1  UNL1       -0.1663
     31 F          67.9260   93.7263    7.9662 F       1  UNL1       -0.1663
     32 F          68.6183   91.9242   10.2624 F       1  UNL1       -0.1663
@<TRIPOS>BOND
     1    20    21    1
     2    21    22   ar
     3    22    23   ar
     4    23    19    1
     5    19     1    1
     6     1     2    2
     7     1     3   am
     8     3     5    1
     9     5     6   ar
    10     6     7   ar
    11     7     8   ar
    12     8    10    1
    13    10    11    1
    14    11    12   ar
    15    12    13   ar
    16    13    14   ar
    17    14    17    1
    18    17    18    3
    19    14    15   ar
    20    15    16   ar
    21     8     9   ar
    22    23    24   ar
    23    24    25   ar
    24    25    26   ar
    25    26    27    1
    26    27    28    1
    27    28    29    1
    28    29    30    1
    29    29    31    1
    30    29    32    1
    31    26    21   ar
    32     9     5   ar
    33    16    11   ar
    34     3     4    1
@<TRIPOS>MOLECULE
*****
 32 34 0 0 0
SMALL
GASTEIGER

@<TRIPOS>ATOM
      1 C          61.9164   89.4829   12.0316 C.2     1  UNL1        0.2316
      2 O          60.4488   89.5076   12.3409 O.2     1  UNL1       -0.2744
      3 N          62.3962   88.9530   10.7130 N.am    1  UNL1       -0.2677
      4 H          63.3595   88.9368   10.5100 H       1  UNL1        0.1563
      5 C          61.4085   88.4478    9.7034 C.ar    1  UNL1        0.1555
      6 C          61.1367   87.0087    9.3795 C.ar    1  UNL1        0.0564
      7 C          60.0793   86.9644    8.3164 C.ar    1  UNL1        0.0985
      8 N          59.6976   88.3763    7.9834 N.ar    1  UNL1       -0.2421
      9 N          60.5191   89.2931    8.8406 N.ar    1  UNL1       -0.1536
     10 C          58.6741   88.7975    6.9710 C.3     1  UNL1        0.1728
     11 C          58.9697   89.9289    6.0317 C.ar    1  UNL1        0.0837
     12 C          57.8553   90.8002    5.5327 C.ar    1  UNL1        0.0174
     13 C          58.1510   91.9317    4.5934 C.ar    1  UNL1        0.0131
     14 C          59.5610   92.1919    4.1530 C.ar    1  UNL1        0.0875
     15 C          60.6755   91.3207    4.6520 C.ar    1  UNL1        0.1087
     16 N          60.3798   90.1892    5.5913 N.ar    1  UNL1       -0.2454
     17 C          59.8567   93.3234    3.2136 C.1     1  UNL1        0.1020
     18 N          60.1524   94.4549    2.2743 N.1     1  UNL1       -0.1908
     19 C          62.9042   89.9881   13.0412 C.3     1  UNL1        0.1117
     20 C          67.3640   92.4525   14.0593 C.3     1  UNL1        0.0342
     21 C          66.2270   92.1565   13.1268 C.ar    1  UNL1        0.0118
     22 C          65.1341   91.2203   13.5502 C.ar    1  UNL1       -0.0050
     23 C          63.9971   90.9243   12.6177 C.ar    1  UNL1       -0.0132
     24 C          63.9529   91.5644   11.2619 C.ar    1  UNL1       -0.0007
     25 C          65.0457   92.5005   10.8385 C.ar    1  UNL1        0.0363
     26 C          66.1828   92.7966   11.7710 C.ar    1  UNL1        0.1349
     27 O          67.2756   93.7328   11.3476 O.3     1  UNL1       -0.4669
     28 C          67.4965   94.0182    9.8917 C.3     1  UNL1        0.3081
     29 C          68.3018   93.0686    9.0550 C.3     1  UNL1        0.4380
     30 F          69.1070   92.1191    8.2183 F       1  UNL1       -0.1663
     31 F          68.6698   92.2955   10.2865 F       1  UNL1       -0.1663
     32 F          67.9338   93.8417    7.8234 F       1  UNL1       -0.1663
@<TRIPOS>BOND
     1    20    21    1
     2    21    22   ar
     3    22    23   ar
     4    23    19    1
     5    19     1    1
     6     1     2    2
     7     1     3   am
     8     3     5    1
     9     5     6   ar
    10     6     7   ar
    11     7     8   ar
    12     8    10    1
    13    10    11    1
    14    11    12   ar
    15    12    13   ar
    16    13    14   ar
    17    14    17    1
    18    17    18    3
    19    14    15   ar
    20    15    16   ar
    21     8     9   ar
    22    23    24   ar
    23    24    25   ar
    24    25    26   ar
    25    26    27    1
    26    27    28    1
    27    28    29    1
    28    29    30    1
    29    29    31    1
    30    29    32    1
    31    26    21   ar
    32     9     5   ar
    33    16    11   ar
    34     3     4    1
@<TRIPOS>MOLECULE
*****
 32 34 0 0 0
SMALL
GASTEIGER

@<TRIPOS>ATOM
      1 C          63.2695   89.4625   16.0511 C.2     1  UNL1        0.2316
      2 O          61.8718   89.0362   16.3900 O.2     1  UNL1       -0.2744
      3 N          64.2752   88.4453   15.5996 N.am    1  UNL1       -0.2677
      4 H          65.1925   88.7251   15.3772 H       1  UNL1        0.1563
      5 C          63.8833   87.0018   15.4869 C.ar    1  UNL1        0.1555
      6 C          63.4048   86.1280   16.6083 C.ar    1  UNL1        0.0564
      7 C          63.1268   84.7648   16.0475 C.ar    1  UNL1        0.0985
      8 N          63.4335   84.7961   14.5796 N.ar    1  UNL1       -0.2421
      9 N          63.9010   86.1787   14.2331 N.ar    1  UNL1       -0.1536
     10 C          63.2967   83.6467   13.6255 C.3     1  UNL1        0.1728
     11 C          63.1875   83.9041   12.1519 C.ar    1  UNL1        0.0837
     12 C          64.0419   83.1324   11.1903 C.ar    1  UNL1        0.0174
     13 C          63.9328   83.3898    9.7167 C.ar    1  UNL1        0.0131
     14 C          62.9693   84.4190    9.2044 C.ar    1  UNL1        0.0875
     15 C          62.1149   85.1907   10.1659 C.ar    1  UNL1        0.1087
     16 N          62.2240   84.9333   11.6396 N.ar    1  UNL1       -0.2454
     17 C          62.8601   84.6764    7.7307 C.1     1  UNL1        0.1020
     18 N          62.7510   84.9338    6.2570 N.1     1  UNL1       -0.1908
     19 C          63.6614   90.9060   16.1638 C.3     1  UNL1        0.1117
     20 C          67.9241   93.6065   14.9241 C.3     1  UNL1        0.0342
     21 C          66.6828   92.8748   14.5070 C.ar    1  UNL1        0.0118
     22 C          65.7928   92.2562   15.5439 C.ar    1  UNL1       -0.0050
     23 C          64.5515   91.5246   15.1268 C.ar    1  UNL1       -0.0132
     24 C          64.2002   91.4116   13.6730 C.ar    1  UNL1       -0.0007
     25 C          65.0903   92.0302   12.6361 C.ar    1  UNL1        0.0363
     26 C          66.3316   92.7618   13.0531 C.ar    1  UNL1        0.1349
     27 O          67.2216   93.3805   12.0162 O.3     1  UNL1       -0.4669
     28 C          66.9521   93.1452   10.5595 C.3     1  UNL1        0.3081
     29 C          68.0566   92.6786    9.6582 C.3     1  UNL1        0.4380
     30 F          69.1611   92.2119    8.7569 F       1  UNL1       -0.1663
     31 F          67.6132   93.6548    8.6093 F       1  UNL1       -0.1663
     32 F          68.5001   91.7023   10.7071 F       1  UNL1       -0.1663
@<TRIPOS>BOND
     1    20    21    1
     2    21    22   ar
     3    22    23   ar
     4    23    19    1
     5    19     1    1
     6     1     2    2
     7     1     3   am
     8     3     5    1
     9     5     6   ar
    10     6     7   ar
    11     7     8   ar
    12     8    10    1
    13    10    11    1
    14    11    12   ar
    15    12    13   ar
    16    13    14   ar
    17    14    17    1
    18    17    18    3
    19    14    15   ar
    20    15    16   ar
    21     8     9   ar
    22    23    24   ar
    23    24    25   ar
    24    25    26   ar
    25    26    27    1
    26    27    28    1
    27    28    29    1
    28    29    30    1
    29    29    31    1
    30    29    32    1
    31    26    21   ar
    32     9     5   ar
    33    16    11   ar
    34     3     4    1
@<TRIPOS>MOLECULE
*****
 32 34 0 0 0
SMALL
GASTEIGER

@<TRIPOS>ATOM
      1 C          63.7659   89.3172   15.1757 C.2     1  UNL1        0.2316
      2 O          63.6149   88.8235   13.7673 O.2     1  UNL1       -0.2744
      3 N          63.6708   88.3547   16.3222 N.am    1  UNL1       -0.2677
      4 H          63.7699   88.6787   17.2465 H       1  UNL1        0.1563
      5 C          63.4248   86.8983   16.0603 C.ar    1  UNL1        0.1555
      6 C          62.7084   85.9472   16.9725 C.ar    1  UNL1        0.0564
      7 C          62.6928   84.5985   16.3163 C.ar    1  UNL1        0.0985
      8 N          63.3996   84.7160   14.9984 N.ar    1  UNL1       -0.2421
      9 N          63.8520   86.1374   14.8403 N.ar    1  UNL1       -0.1536
     10 C          63.6160   83.6069   14.0120 C.3     1  UNL1        0.1728
     11 C          63.4389   83.8631   12.5448 C.ar    1  UNL1        0.0837
     12 C          64.2410   83.0837   11.5451 C.ar    1  UNL1        0.0174
     13 C          64.0639   83.3399   10.0778 C.ar    1  UNL1        0.0131
     14 C          63.0848   84.3755    9.6101 C.ar    1  UNL1        0.0875
     15 C          62.2827   85.1549   10.6097 C.ar    1  UNL1        0.1087
     16 N          62.4598   84.8987   12.0770 N.ar    1  UNL1       -0.2454
     17 C          62.9077   84.6316    8.1428 C.1     1  UNL1        0.1020
     18 N          62.7306   84.8878    6.6754 N.1     1  UNL1       -0.1908
     19 C          64.0119   90.7736   15.4376 C.3     1  UNL1        0.1117
     20 C          64.8677   92.2967   10.5440 C.3     1  UNL1        0.0342
     21 C          65.2152   92.3544   12.0020 C.ar    1  UNL1        0.0118
     22 C          64.4398   91.5352   12.9908 C.ar    1  UNL1       -0.0050
     23 C          64.7873   91.5928   14.4488 C.ar    1  UNL1       -0.0132
     24 C          65.9101   92.4697   14.9182 C.ar    1  UNL1       -0.0007
     25 C          66.6855   93.2889   13.9294 C.ar    1  UNL1        0.0363
     26 C          66.3380   93.2313   12.4714 C.ar    1  UNL1        0.1349
     27 O          67.1135   94.0506   11.4826 O.3     1  UNL1       -0.4669
     28 C          66.5438   95.3379   10.9647 C.3     1  UNL1        0.3081
     29 C          66.7842   95.7455    9.5413 C.3     1  UNL1        0.4380
     30 F          67.0244   96.1531    8.1179 F       1  UNL1       -0.1663
     31 F          68.0931   95.0130    9.5524 F       1  UNL1       -0.1663
     32 F          65.4753   96.4780    9.5301 F       1  UNL1       -0.1663
@<TRIPOS>BOND
     1    20    21    1
     2    21    22   ar
     3    22    23   ar
     4    23    19    1
     5    19     1    1
     6     1     2    2
     7     1     3   am
     8     3     5    1
     9     5     6   ar
    10     6     7   ar
    11     7     8   ar
    12     8    10    1
    13    10    11    1
    14    11    12   ar
    15    12    13   ar
    16    13    14   ar
    17    14    17    1
    18    17    18    3
    19    14    15   ar
    20    15    16   ar
    21     8     9   ar
    22    23    24   ar
    23    24    25   ar
    24    25    26   ar
    25    26    27    1
    26    27    28    1
    27    28    29    1
    28    29    30    1
    29    29    31    1
    30    29    32    1
    31    26    21   ar
    32     9     5   ar
    33    16    11   ar
    34     3     4    1
@<TRIPOS>MOLECULE
*****
 32 34 0 0 0
SMALL
GASTEIGER

@<TRIPOS>ATOM
      1 C          63.5819   86.5688   15.0523 C.2     1  UNL1        0.2316
      2 O          63.4554   86.8500   16.5204 O.2     1  UNL1       -0.2744
      3 N          63.9612   87.6705   14.1077 N.am    1  UNL1       -0.2677
      4 H          64.0442   87.4859   13.1442 H       1  UNL1        0.1563
      5 C          64.2139   89.0534   14.6309 C.ar    1  UNL1        0.1555
      6 C          63.4406   89.7399   15.7175 C.ar    1  UNL1        0.0564
      7 C          64.0330   91.1033   15.9177 C.ar    1  UNL1        0.0985
      8 N          65.1725   91.2595   14.9547 N.ar    1  UNL1       -0.2421
      9 N          65.2842   89.9925   14.1595 N.ar    1  UNL1       -0.1536
     10 C          66.0467   92.4700   14.8120 C.3     1  UNL1        0.1728
     11 C          66.2726   93.0767   13.4590 C.ar    1  UNL1        0.0837
     12 C          66.7097   92.2129   12.3132 C.ar    1  UNL1        0.0174
     13 C          66.9357   92.8196   10.9601 C.ar    1  UNL1        0.0131
     14 C          66.7245   94.2901   10.7528 C.ar    1  UNL1        0.0875
     15 C          66.2874   95.1539   11.8985 C.ar    1  UNL1        0.1087
     16 N          66.0614   94.5472   13.2516 N.ar    1  UNL1       -0.2454
     17 C          66.9504   94.8968    9.3996 C.1     1  UNL1        0.1020
     18 N          67.1764   95.5035    8.0465 N.1     1  UNL1       -0.1908
     19 C          63.3292   85.1859   14.5291 C.3     1  UNL1        0.1117
     20 C          64.6893   82.3470   10.3949 C.3     1  UNL1        0.0342
     21 C          63.9639   83.5209   10.9829 C.ar    1  UNL1        0.0118
     22 C          64.0093   83.7665   12.4620 C.ar    1  UNL1       -0.0050
     23 C          63.2838   84.9404   13.0499 C.ar    1  UNL1       -0.0132
     24 C          62.5130   85.8687   12.1589 C.ar    1  UNL1       -0.0007
     25 C          62.4677   85.6232   10.6799 C.ar    1  UNL1        0.0363
     26 C          63.1931   84.4493   10.0919 C.ar    1  UNL1        0.1349
     27 O          63.1477   84.2037    8.6127 O.3     1  UNL1       -0.4669
     28 C          62.4593   85.1845    7.7105 C.3     1  UNL1        0.3081
     29 C          61.8126   84.7112    6.4425 C.3     1  UNL1        0.4380
     30 F          61.1658   84.2379    5.1745 F       1  UNL1       -0.1663
     31 F          63.1592   84.3457    5.8920 F       1  UNL1       -0.1663
     32 F          60.4660   85.0767    6.9929 F       1  UNL1       -0.1663
@<TRIPOS>BOND
     1    20    21    1
     2    21    22   ar
     3    22    23   ar
     4    23    19    1
     5    19     1    1
     6     1     2    2
     7     1     3   am
     8     3     5    1
     9     5     6   ar
    10     6     7   ar
    11     7     8   ar
    12     8    10    1
    13    10    11    1
    14    11    12   ar
    15    12    13   ar
    16    13    14   ar
    17    14    17    1
    18    17    18    3
    19    14    15   ar
    20    15    16   ar
    21     8     9   ar
    22    23    24   ar
    23    24    25   ar
    24    25    26   ar
    25    26    27    1
    26    27    28    1
    27    28    29    1
    28    29    30    1
    29    29    31    1
    30    29    32    1
    31    26    21   ar
    32     9     5   ar
    33    16    11   ar
    34     3     4    1
@<TRIPOS>MOLECULE
*****
 32 34 0 0 0
SMALL
GASTEIGER

@<TRIPOS>ATOM
      1 C          62.8625   89.2447   12.9006 C.2     1  UNL1        0.2316
      2 O          62.7803   87.8844   12.2739 O.2     1  UNL1       -0.2744
      3 N          63.1304   89.3784   14.3704 N.am    1  UNL1       -0.2677
      4 H          63.1844   90.2712   14.7818 H       1  UNL1        0.1563
      5 C          63.3162   88.1517   15.2135 C.ar    1  UNL1        0.1555
      6 C          62.9999   88.0299   16.6747 C.ar    1  UNL1        0.0564
      7 C          63.3390   86.6344   17.1077 C.ar    1  UNL1        0.0985
      8 N          63.8649   85.8936   15.9141 N.ar    1  UNL1       -0.2421
      9 N          63.8508   86.8314   14.7434 N.ar    1  UNL1       -0.1536
     10 C          64.3243   84.4659   15.8945 C.3     1  UNL1        0.1728
     11 C          64.0253   83.5980   14.7083 C.ar    1  UNL1        0.0837
     12 C          64.6228   83.9231   13.3714 C.ar    1  UNL1        0.0174
     13 C          64.3238   83.0553   12.1851 C.ar    1  UNL1        0.0131
     14 C          63.4273   81.8622   12.3356 C.ar    1  UNL1        0.0875
     15 C          62.8297   81.5370   13.6725 C.ar    1  UNL1        0.1087
     16 N          63.1288   82.4049   14.8588 N.ar    1  UNL1       -0.2454
     17 C          63.1282   80.9942   11.1493 C.1     1  UNL1        0.1020
     18 N          62.8292   80.1263    9.9630 N.1     1  UNL1       -0.1908
     19 C          62.6768   90.4714   12.0576 C.3     1  UNL1        0.1117
     20 C          66.8767   92.9771   13.8131 C.3     1  UNL1        0.0342
     21 C          65.9315   92.6510   12.6950 C.ar    1  UNL1        0.0118
     22 C          64.7768   91.7243   12.9353 C.ar    1  UNL1       -0.0050
     23 C          63.8315   91.3982   11.8172 C.ar    1  UNL1       -0.0132
     24 C          64.0410   91.9987   10.4588 C.ar    1  UNL1       -0.0007
     25 C          65.1957   92.9254   10.2185 C.ar    1  UNL1        0.0363
     26 C          66.1410   93.2516   11.3366 C.ar    1  UNL1        0.1349
     27 O          67.2957   94.1783   11.0962 O.3     1  UNL1       -0.4669
     28 C          67.8342   94.3613    9.7083 C.3     1  UNL1        0.3081
     29 C          68.3845   93.1858    8.9562 C.3     1  UNL1        0.4380
     30 F          68.9346   92.0103    8.2042 F       1  UNL1       -0.1663
     31 F          68.8171   92.5609   10.2494 F       1  UNL1       -0.1663
     32 F          67.9518   93.8106    7.6631 F       1  UNL1       -0.1663
@<TRIPOS>BOND
     1    20    21    1
     2    21    22   ar
     3    22    23   ar
     4    23    19    1
     5    19     1    1
     6     1     2    2
     7     1     3   am
     8     3     5    1
     9     5     6   ar
    10     6     7   ar
    11     7     8   ar
    12     8    10    1
    13    10    11    1
    14    11    12   ar
    15    12    13   ar
    16    13    14   ar
    17    14    17    1
    18    17    18    3
    19    14    15   ar
    20    15    16   ar
    21     8     9   ar
    22    23    24   ar
    23    24    25   ar
    24    25    26   ar
    25    26    27    1
    26    27    28    1
    27    28    29    1
    28    29    30    1
    29    29    31    1
    30    29    32    1
    31    26    21   ar
    32     9     5   ar
    33    16    11   ar
    34     3     4    1
@<TRIPOS>MOLECULE
*****
 32 34 0 0 0
SMALL
GASTEIGER

@<TRIPOS>ATOM
      1 C          63.6195   89.1407   15.4259 C.2     1  UNL1        0.2316
      2 O          63.0876   88.6199   16.7282 O.2     1  UNL1       -0.2744
      3 N          64.1820   88.1898   14.4114 N.am    1  UNL1       -0.2677
      4 H          64.5310   88.5317   13.5567 H       1  UNL1        0.1563
      5 C          64.2126   86.7180   14.6991 C.ar    1  UNL1        0.1555
      6 C          65.3960   85.9410   15.1949 C.ar    1  UNL1        0.0564
      7 C          64.9801   84.5075   15.3437 C.ar    1  UNL1        0.0985
      8 N          63.5395   84.3986   14.9400 N.ar    1  UNL1       -0.2421
      9 N          63.0653   85.7647   14.5416 N.ar    1  UNL1       -0.1536
     10 C          62.7176   83.1438   14.9354 C.3     1  UNL1        0.1728
     11 C          62.7684   82.2183   13.7562 C.ar    1  UNL1        0.0837
     12 C          62.3518   80.7854   13.9088 C.ar    1  UNL1        0.0174
     13 C          62.4026   79.8598   12.7296 C.ar    1  UNL1        0.0131
     14 C          62.8700   80.3671   11.3976 C.ar    1  UNL1        0.0875
     15 C          63.2866   81.7999   11.2449 C.ar    1  UNL1        0.1087
     16 N          63.2358   82.7255   12.4242 N.ar    1  UNL1       -0.2454
     17 C          62.9208   79.4415   10.2183 C.1     1  UNL1        0.1020
     18 N          62.9716   78.5159    9.0390 N.1     1  UNL1       -0.1908
     19 C          63.5888   90.6126   15.1382 C.3     1  UNL1        0.1117
     20 C          68.4069   92.2393   14.0707 C.3     1  UNL1        0.0342
     21 C          66.9847   92.0234   13.6457 C.ar    1  UNL1        0.0118
     22 C          65.9979   91.4259   14.6044 C.ar    1  UNL1       -0.0050
     23 C          64.5756   91.2101   14.1794 C.ar    1  UNL1       -0.0132
     24 C          64.1402   91.5916   12.7957 C.ar    1  UNL1       -0.0007
     25 C          65.1270   92.1891   11.8370 C.ar    1  UNL1        0.0363
     26 C          66.5493   92.4050   12.2619 C.ar    1  UNL1        0.1349
     27 O          67.5361   93.0025   11.3031 O.3     1  UNL1       -0.4669
     28 C          67.2335   94.3099   10.6331 C.3     1  UNL1        0.3081
     29 C          67.4078   94.4506    9.1499 C.3     1  UNL1        0.4380
     30 F          67.5820   94.5913    7.6667 F       1  UNL1       -0.1663
     31 F          68.6588   93.6258    9.2186 F       1  UNL1       -0.1663
     32 F          66.1568   95.2754    9.0811 F       1  UNL1       -0.1663
@<TRIPOS>BOND
     1    20    21    1
     2    21    22   ar
     3    22    23   ar
     4    23    19    1
     5    19     1    1
     6     1     2    2
     7     1     3   am
     8     3     5    1
     9     5     6   ar
    10     6     7   ar
    11     7     8   ar
    12     8    10    1
    13    10    11    1
    14    11    12   ar
    15    12    13   ar
    16    13    14   ar
    17    14    17    1
    18    17    18    3
    19    14    15   ar
    20    15    16   ar
    21     8     9   ar
    22    23    24   ar
    23    24    25   ar
    24    25    26   ar
    25    26    27    1
    26    27    28    1
    27    28    29    1
    28    29    30    1
    29    29    31    1
    30    29    32    1
    31    26    21   ar
    32     9     5   ar
    33    16    11   ar
    34     3     4    1
