@<TRIPOS>MOLECULE
*****
 48 53 0 0 0
SMALL
GASTEIGER

@<TRIPOS>ATOM
      1 C          63.5405   87.8407   13.2003 C.ar    1  UNL1        0.0005
      2 C          64.0767   86.8923   14.2314 C.ar    1  UNL1       -0.0002
      3 C          63.8109   85.4212   14.1076 C.ar    1  UNL1        0.0038
      4 C          63.0089   84.8987   12.9527 C.ar    1  UNL1        0.0712
      5 C          62.4728   85.8471   11.9216 C.ar    1  UNL1        0.0012
      6 C          62.7386   87.3181   12.0454 C.ar    1  UNL1       -0.0041
      7 C          62.2025   88.2666   11.0144 C.3     1  UNL1        0.1012
      8 C          62.2704   89.7638   11.0737 C.3     1  UNL1        0.0263
      9 C          61.6143   90.3068    9.8390 C.3     1  UNL1        0.0260
     10 C          61.1408   89.1452    9.0165 C.3     1  UNL1        0.1232
     11 C          60.4427   88.7628    7.7451 C.3     1  UNL1        0.2107
     12 O          60.3748   87.2656    7.6859 O.3     1  UNL1       -0.4320
     13 C          61.0310   86.7225    8.9205 C.2     1  UNL1        0.4054
     14 O          61.1864   85.2724    9.2713 O.2     1  UNL1       -0.2262
     15 N          61.5044   87.8842    9.7430 N.am    1  UNL1       -0.2416
     16 C          59.9066   89.7113    6.7141 C.ar    1  UNL1        0.0189
     17 C          60.8492   90.4362    5.7997 C.ar    1  UNL1        0.0031
     18 C          60.3131   91.3846    4.7687 C.ar    1  UNL1        0.0712
     19 C          58.8344   91.6082    4.6520 C.ar    1  UNL1        0.0077
     20 C          57.8919   90.8833    5.5664 C.ar    1  UNL1        0.0712
     21 C          58.4280   89.9348    6.5974 C.ar    1  UNL1        0.0031
     22 C          61.2557   92.1095    3.8543 C.3     1  UNL1        0.4186
     23 F          62.1983   92.8344    2.9400 F       1  UNL1       -0.1659
     24 F          62.3098   91.0765    4.1221 F       1  UNL1       -0.1659
     25 F          60.2015   93.1425    3.5866 F       1  UNL1       -0.1659
     26 C          56.4132   91.1068    5.4497 C.3     1  UNL1        0.4186
     27 F          54.9346   91.3304    5.3330 F       1  UNL1       -0.1659
     28 F          56.6654   92.4174    4.7650 F       1  UNL1       -0.1659
     29 F          56.1611   89.7963    6.1344 F       1  UNL1       -0.1659
     30 C          63.2363   90.0825   14.4779 C.ar    1  UNL1        0.1386
     31 C          63.5021   91.5535   14.6018 C.ar    1  UNL1        0.0366
     32 C          64.3381   92.2539   13.5718 C.ar    1  UNL1       -0.0012
     33 C          64.9081   91.4832   12.4181 C.ar    1  UNL1       -0.0223
     34 C          64.6423   90.0122   12.2943 C.ar    1  UNL1       -0.0013
     35 C          63.8064   89.3117   13.3241 C.ar    1  UNL1        0.0334
     36 C          65.7440   92.1836   11.3882 C.3     1  UNL1        0.0231
     37 C          65.4567   93.0748   10.2164 C.3     1  UNL1        0.0099
     38 C          66.9261   93.1742    9.9317 C.3     1  UNL1        0.0372
     39 C          67.2134   92.2830   11.1036 C.3     1  UNL1        0.0099
     40 C          67.7620   93.8747    8.9018 C.2     1  UNL1        0.0500
     41 O          67.8482   95.3722    8.8978 O.co2   1  UNL1       -0.5492
     42 O          68.5116   93.0776    7.8758 O.co2   1  UNL1       -0.5492
     43 C          63.0082   88.9770   16.8180 C.3     1  UNL1        0.2525
     44 O          62.4004   89.3821   15.5078 O.3     1  UNL1       -0.4714
     45 C          62.7431   83.4276   12.8288 C.3     1  UNL1        0.4186
     46 F          62.4773   81.9566   12.7050 F       1  UNL1       -0.1659
     47 F          62.3879   83.3692   14.2850 F       1  UNL1       -0.1659
     48 F          63.0984   83.4860   11.3726 F       1  UNL1       -0.1659
@<TRIPOS>UNITY_ATOM_ATTR
41 1
charge -1
@<TRIPOS>BOND
     1    43    44    1
     2    44    30    1
     3    30    31   ar
     4    31    32   ar
     5    32    33   ar
     6    36    33    1
     7    36    37    1
     8    37    38    1
     9    38    40    1
    10    40    41   ar
    11    40    42   ar
    12    38    39    1
    13    33    34   ar
    14    34    35   ar
    15    35     1    1
    16     1     2   ar
    17     2     3   ar
    18     3     4   ar
    19     4    45    1
    20    45    46    1
    21    45    47    1
    22    45    48    1
    23     4     5   ar
    24     5     6   ar
    25     7     6    1
    26     7     8    1
    27     8     9    1
    28    10     9    1
    29    10    11    1
    30    11    16    1
    31    16    17   ar
    32    17    18   ar
    33    18    22    1
    34    22    23    1
    35    22    24    1
    36    22    25    1
    37    18    19   ar
    38    19    20   ar
    39    20    26    1
    40    26    27    1
    41    26    28    1
    42    26    29    1
    43    20    21   ar
    44    11    12    1
    45    12    13    1
    46    13    14    2
    47    13    15   am
    48    35    30   ar
    49     6     1   ar
    50    15     7    1
    51    39    36    1
    52    15    10    1
    53    21    16   ar
@<TRIPOS>MOLECULE
*****
 48 53 0 0 0
SMALL
GASTEIGER

@<TRIPOS>ATOM
      1 C          63.5372   87.8411   13.1975 C.ar    1  UNL1        0.0005
      2 C          64.0746   86.8922   14.2276 C.ar    1  UNL1       -0.0002
      3 C          63.8092   85.4211   14.1030 C.ar    1  UNL1        0.0038
      4 C          63.0065   84.8990   12.9484 C.ar    1  UNL1        0.0712
      5 C          62.4692   85.8478   11.9184 C.ar    1  UNL1        0.0012
      6 C          62.7346   87.3189   12.0429 C.ar    1  UNL1       -0.0041
      7 C          62.1973   88.2678   11.0129 C.3     1  UNL1        0.1012
      8 C          62.2631   89.7651   11.0740 C.3     1  UNL1        0.0263
      9 C          61.6063   90.3086    9.8398 C.3     1  UNL1        0.0260
     10 C          61.1346   89.1473    9.0160 C.3     1  UNL1        0.1232
     11 C          60.4372   88.7654    7.7441 C.3     1  UNL1        0.2107
     12 O          60.3714   87.2682    7.6830 O.3     1  UNL1       -0.4320
     13 C          61.0281   86.7246    8.9172 C.2     1  UNL1        0.4054
     14 O          61.1855   85.2743    9.2662 O.2     1  UNL1       -0.2262
     15 N          61.4998   87.8860    9.7410 N.am    1  UNL1       -0.2416
     16 C          59.8999   89.7143    6.7141 C.ar    1  UNL1        0.0189
     17 C          58.4209   89.9347    6.5964 C.ar    1  UNL1        0.0031
     18 C          57.8836   90.8836    5.5664 C.ar    1  UNL1        0.0712
     19 C          58.8253   91.6122    4.6541 C.ar    1  UNL1        0.0077
     20 C          60.3044   91.3918    4.7717 C.ar    1  UNL1        0.0712
     21 C          60.8416   90.4429    5.8017 C.ar    1  UNL1        0.0031
     22 C          56.4044   91.1039    5.4488 C.3     1  UNL1        0.4186
     23 F          54.9254   91.3241    5.3312 F       1  UNL1       -0.1659
     24 F          56.6541   92.4161    4.7662 F       1  UNL1       -0.1659
     25 F          56.1548   89.7917    6.1314 F       1  UNL1       -0.1659
     26 C          61.2461   92.1203    3.8594 C.3     1  UNL1        0.4186
     27 F          62.1878   92.8489    2.9471 F       1  UNL1       -0.1659
     28 F          62.2935   91.0753    4.1062 F       1  UNL1       -0.1659
     29 F          60.1987   93.1653    3.6127 F       1  UNL1       -0.1659
     30 C          63.2320   90.0822   14.4761 C.ar    1  UNL1        0.1386
     31 C          63.4974   91.5533   14.6006 C.ar    1  UNL1        0.0366
     32 C          64.3334   92.2543   13.5712 C.ar    1  UNL1       -0.0012
     33 C          64.9039   91.4843   12.4173 C.ar    1  UNL1       -0.0223
     34 C          64.6386   90.0132   12.2927 C.ar    1  UNL1       -0.0013
     35 C          63.8026   89.3121   13.3221 C.ar    1  UNL1        0.0334
     36 C          65.7399   92.1854   11.3879 C.3     1  UNL1        0.0231
     37 C          67.2090   92.2817   11.1010 C.3     1  UNL1        0.0099
     38 C          66.9221   93.1770    9.9322 C.3     1  UNL1        0.0372
     39 C          65.4530   93.0807   10.2191 C.3     1  UNL1        0.0099
     40 C          67.7582   93.8781    8.9028 C.2     1  UNL1        0.0500
     41 O          68.5080   93.0818    7.8764 O.co2   1  UNL1       -0.5492
     42 O          67.8443   95.3756    8.9000 O.co2   1  UNL1       -0.5492
     43 C          63.0074   88.9623   16.8096 C.3     1  UNL1        0.2525
     44 O          62.3961   89.3811   15.5054 O.3     1  UNL1       -0.4714
     45 C          62.7412   83.4279   12.8239 C.3     1  UNL1        0.4186
     46 F          62.4758   81.9569   12.6993 F       1  UNL1       -0.1659
     47 F          63.1737   83.4715   11.3883 F       1  UNL1       -0.1659
     48 F          62.3085   83.3843   14.2595 F       1  UNL1       -0.1659
@<TRIPOS>UNITY_ATOM_ATTR
41 1
charge -1
@<TRIPOS>BOND
     1    43    44    1
     2    44    30    1
     3    30    31   ar
     4    31    32   ar
     5    32    33   ar
     6    36    33    1
     7    36    37    1
     8    37    38    1
     9    38    40    1
    10    40    41   ar
    11    40    42   ar
    12    38    39    1
    13    33    34   ar
    14    34    35   ar
    15    35     1    1
    16     1     2   ar
    17     2     3   ar
    18     3     4   ar
    19     4    45    1
    20    45    46    1
    21    45    47    1
    22    45    48    1
    23     4     5   ar
    24     5     6   ar
    25     7     6    1
    26     7     8    1
    27     8     9    1
    28    10     9    1
    29    10    11    1
    30    11    16    1
    31    16    17   ar
    32    17    18   ar
    33    18    22    1
    34    22    23    1
    35    22    24    1
    36    22    25    1
    37    18    19   ar
    38    19    20   ar
    39    20    26    1
    40    26    27    1
    41    26    28    1
    42    26    29    1
    43    20    21   ar
    44    11    12    1
    45    12    13    1
    46    13    14    2
    47    13    15   am
    48    35    30   ar
    49     6     1   ar
    50    15     7    1
    51    39    36    1
    52    15    10    1
    53    21    16   ar
@<TRIPOS>MOLECULE
*****
 48 53 0 0 0
SMALL
GASTEIGER

@<TRIPOS>ATOM
      1 C          63.1100   87.1532   12.4860 C.ar    1  UNL1        0.0005
      2 C          63.5918   86.1010   13.4403 C.ar    1  UNL1       -0.0002
      3 C          63.5400   84.6537   13.0494 C.ar    1  UNL1        0.0038
      4 C          63.0063   84.2588   11.7043 C.ar    1  UNL1        0.0712
      5 C          62.5245   85.3111   10.7500 C.ar    1  UNL1        0.0012
      6 C          62.5764   86.7583   11.1409 C.ar    1  UNL1       -0.0041
      7 C          62.0946   87.8107   10.1867 C.3     1  UNL1        0.1012
      8 C          62.4850   89.2589   10.2008 C.3     1  UNL1        0.0263
      9 C          61.7695   89.9428    9.0737 C.3     1  UNL1        0.0260
     10 C          60.9369   88.9172    8.3630 C.3     1  UNL1        0.1232
     11 C          59.9801   88.7060    7.2272 C.3     1  UNL1        0.2107
     12 O          59.5898   87.2578    7.2132 O.3     1  UNL1       -0.4320
     13 C          60.3052   86.5739    8.3403 C.2     1  UNL1        0.4054
     14 O          60.2057   85.1197    8.6946 O.2     1  UNL1       -0.2262
     15 N          61.1378   87.5995    9.0509 N.am    1  UNL1       -0.2416
     16 C          59.4983   89.7583    6.2730 C.ar    1  UNL1        0.0189
     17 C          60.4826   90.5132    5.4296 C.ar    1  UNL1        0.0031
     18 C          60.0008   91.5655    4.4754 C.ar    1  UNL1        0.0712
     19 C          58.5348   91.8630    4.3647 C.ar    1  UNL1        0.0077
     20 C          57.5505   91.1081    5.2081 C.ar    1  UNL1        0.0712
     21 C          58.0323   90.0558    6.1623 C.ar    1  UNL1        0.0031
     22 C          60.9852   92.3204    3.6319 C.3     1  UNL1        0.4186
     23 F          61.9694   93.0752    2.7885 F       1  UNL1       -0.1659
     24 F          62.0647   91.3584    4.0308 F       1  UNL1       -0.1659
     25 F          59.9055   93.2824    3.2330 F       1  UNL1       -0.1659
     26 C          56.0845   91.4056    5.0974 C.3     1  UNL1        0.4186
     27 F          54.6185   91.7031    4.9866 F       1  UNL1       -0.1659
     28 F          56.3980   92.6806    4.3720 F       1  UNL1       -0.1659
     29 F          55.7710   90.1307    5.8228 F       1  UNL1       -0.1659
     30 C          61.9029   89.4155   12.9050 C.ar    1  UNL1        0.1386
     31 C          61.9547   90.8627   13.2959 C.ar    1  UNL1        0.0366
     32 C          63.2657   91.4950   13.6587 C.ar    1  UNL1       -0.0012
     33 C          64.5247   90.6801   13.6305 C.ar    1  UNL1       -0.0223
     34 C          64.4728   89.2329   13.2397 C.ar    1  UNL1       -0.0013
     35 C          63.1619   88.6005   12.8769 C.ar    1  UNL1        0.0334
     36 C          65.8356   91.3125   13.9933 C.3     1  UNL1        0.0231
     37 C          67.0000   91.8577   13.2208 C.3     1  UNL1        0.0099
     38 C          67.6895   92.2068   14.5064 C.3     1  UNL1        0.0372
     39 C          66.5250   91.6616   15.2789 C.3     1  UNL1        0.0099
     40 C          69.0005   92.8392   14.8691 C.2     1  UNL1        0.0500
     41 O          69.0740   93.8130   16.0077 O.co2   1  UNL1       -0.5492
     42 O          70.2379   92.4978   14.0932 O.co2   1  UNL1       -0.5492
     43 C          59.4003   89.6445   12.2457 C.3     1  UNL1        0.2525
     44 O          60.5919   88.7831   12.5422 O.3     1  UNL1       -0.4714
     45 C          62.9544   82.8116   11.3134 C.3     1  UNL1        0.4186
     46 F          62.9026   81.3643   10.9226 F       1  UNL1       -0.1659
     47 F          62.2134   82.4963   12.5789 F       1  UNL1       -0.1659
     48 F          63.6955   83.1268   10.0479 F       1  UNL1       -0.1659
@<TRIPOS>UNITY_ATOM_ATTR
41 1
charge -1
@<TRIPOS>BOND
     1    43    44    1
     2    44    30    1
     3    30    31   ar
     4    31    32   ar
     5    32    33   ar
     6    36    33    1
     7    36    37    1
     8    37    38    1
     9    38    40    1
    10    40    41   ar
    11    40    42   ar
    12    38    39    1
    13    33    34   ar
    14    34    35   ar
    15    35     1    1
    16     1     2   ar
    17     2     3   ar
    18     3     4   ar
    19     4    45    1
    20    45    46    1
    21    45    47    1
    22    45    48    1
    23     4     5   ar
    24     5     6   ar
    25     7     6    1
    26     7     8    1
    27     8     9    1
    28    10     9    1
    29    10    11    1
    30    11    16    1
    31    16    17   ar
    32    17    18   ar
    33    18    22    1
    34    22    23    1
    35    22    24    1
    36    22    25    1
    37    18    19   ar
    38    19    20   ar
    39    20    26    1
    40    26    27    1
    41    26    28    1
    42    26    29    1
    43    20    21   ar
    44    11    12    1
    45    12    13    1
    46    13    14    2
    47    13    15   am
    48    35    30   ar
    49     6     1   ar
    50    15     7    1
    51    39    36    1
    52    15    10    1
    53    21    16   ar
@<TRIPOS>MOLECULE
*****
 48 53 0 0 0
SMALL
GASTEIGER

@<TRIPOS>ATOM
      1 C          63.1032   87.1085   12.4137 C.ar    1  UNL1        0.0005
      2 C          63.5945   86.0479   13.3538 C.ar    1  UNL1       -0.0002
      3 C          63.5576   84.6058   12.9428 C.ar    1  UNL1        0.0038
      4 C          63.0295   84.2243   11.5916 C.ar    1  UNL1        0.0712
      5 C          62.5383   85.2850   10.6514 C.ar    1  UNL1        0.0012
      6 C          62.5752   86.7270   11.0625 C.ar    1  UNL1       -0.0041
      7 C          62.0839   87.7877   10.1224 C.3     1  UNL1        0.1012
      8 C          62.4602   89.2393   10.1568 C.3     1  UNL1        0.0263
      9 C          61.7390   89.9317    9.0386 C.3     1  UNL1        0.0260
     10 C          60.9170   88.9080    8.3131 C.3     1  UNL1        0.1232
     11 C          59.9633   88.7032    7.1736 C.3     1  UNL1        0.2107
     12 O          59.5871   87.2516    7.1392 O.3     1  UNL1       -0.4320
     13 C          60.3082   86.5592    8.2574 C.2     1  UNL1        0.4054
     14 O          60.2225   85.0994    8.5916 O.2     1  UNL1       -0.2262
     15 N          61.1302   87.5829    8.9830 N.am    1  UNL1       -0.2416
     16 C          59.4721   89.7638    6.2335 C.ar    1  UNL1        0.0189
     17 C          58.0047   90.0597    6.1374 C.ar    1  UNL1        0.0031
     18 C          57.5135   91.1204    5.1973 C.ar    1  UNL1        0.0712
     19 C          58.4897   91.8851    4.3534 C.ar    1  UNL1        0.0077
     20 C          59.9570   91.5892    4.4495 C.ar    1  UNL1        0.0712
     21 C          60.4482   90.5285    5.3895 C.ar    1  UNL1        0.0031
     22 C          56.0461   91.4162    5.1013 C.3     1  UNL1        0.4186
     23 F          54.5787   91.7120    5.0053 F       1  UNL1       -0.1659
     24 F          56.3511   92.6941    4.3775 F       1  UNL1       -0.1659
     25 F          55.7411   90.1382    5.8251 F       1  UNL1       -0.1659
     26 C          60.9332   92.3539    3.6055 C.3     1  UNL1        0.4186
     27 F          61.9094   93.1187    2.7615 F       1  UNL1       -0.1659
     28 F          62.0298   91.4226    4.0299 F       1  UNL1       -0.1659
     29 F          59.8366   93.2853    3.1811 F       1  UNL1       -0.1659
     30 C          61.8724   89.3514   12.8660 C.ar    1  UNL1        0.1386
     31 C          61.9092   90.7935   13.2771 C.ar    1  UNL1        0.0366
     32 C          63.2139   91.4348   13.6469 C.ar    1  UNL1       -0.0012
     33 C          64.4815   90.6340   13.6057 C.ar    1  UNL1       -0.0223
     34 C          64.4447   89.1919   13.1946 C.ar    1  UNL1       -0.0013
     35 C          63.1401   88.5506   12.8248 C.ar    1  UNL1        0.0334
     36 C          65.7861   91.2754   13.9755 C.3     1  UNL1        0.0231
     37 C          66.6356   91.3155   15.2111 C.3     1  UNL1        0.0099
     38 C          67.6310   92.1824   14.4986 C.3     1  UNL1        0.0372
     39 C          66.7815   92.1422   13.2630 C.3     1  UNL1        0.0099
     40 C          68.9356   92.8237   14.8685 C.2     1  UNL1        0.0500
     41 O          68.9970   93.7947   16.0101 O.co2   1  UNL1       -0.5492
     42 O          70.1789   92.4939   14.0968 O.co2   1  UNL1       -0.5492
     43 C          59.3701   89.5631   12.1998 C.3     1  UNL1        0.2525
     44 O          60.5678   88.7101   12.4962 O.3     1  UNL1       -0.4714
     45 C          62.9927   82.7822   11.1805 C.3     1  UNL1        0.4186
     46 F          62.9558   81.3402   10.7694 F       1  UNL1       -0.1659
     47 F          63.8617   83.0968    9.9991 F       1  UNL1       -0.1659
     48 F          62.1236   82.4676   12.3620 F       1  UNL1       -0.1659
@<TRIPOS>UNITY_ATOM_ATTR
41 1
charge -1
@<TRIPOS>BOND
     1    43    44    1
     2    44    30    1
     3    30    31   ar
     4    31    32   ar
     5    32    33   ar
     6    36    33    1
     7    36    37    1
     8    37    38    1
     9    38    40    1
    10    40    41   ar
    11    40    42   ar
    12    38    39    1
    13    33    34   ar
    14    34    35   ar
    15    35     1    1
    16     1     2   ar
    17     2     3   ar
    18     3     4   ar
    19     4    45    1
    20    45    46    1
    21    45    47    1
    22    45    48    1
    23     4     5   ar
    24     5     6   ar
    25     7     6    1
    26     7     8    1
    27     8     9    1
    28    10     9    1
    29    10    11    1
    30    11    16    1
    31    16    17   ar
    32    17    18   ar
    33    18    22    1
    34    22    23    1
    35    22    24    1
    36    22    25    1
    37    18    19   ar
    38    19    20   ar
    39    20    26    1
    40    26    27    1
    41    26    28    1
    42    26    29    1
    43    20    21   ar
    44    11    12    1
    45    12    13    1
    46    13    14    2
    47    13    15   am
    48    35    30   ar
    49     6     1   ar
    50    15     7    1
    51    39    36    1
    52    15    10    1
    53    21    16   ar
