@<TRIPOS>MOLECULE
*****
 20 20 0 0 0
SMALL
GASTEIGER

@<TRIPOS>ATOM
      1 N          63.4772   85.0311   13.2557 N.am    1  UNL1       -0.2598
      2 C          62.7839   85.9913   12.3352 C.2     1  UNL1        0.2459
      3 O          61.7063   85.5016   11.4138 O.2     1  UNL1       -0.2732
      4 C          63.5692   82.6796   12.1547 C.ar    1  UNL1       -0.0088
      5 C          63.1849   81.2297   12.1539 C.ar    1  UNL1       -0.0031
      6 C          62.3242   80.6814   13.2532 C.ar    1  UNL1       -0.0006
      7 C          61.8479   81.5829   14.3534 C.ar    1  UNL1       -0.0030
      8 C          62.2322   83.0328   14.3541 C.ar    1  UNL1       -0.0085
      9 C          61.7558   83.9344   15.4543 C.3     1  UNL1        0.0323
     10 C          63.0929   83.5812   13.2548 C.ar    1  UNL1        0.0458
     11 C          63.8288   83.5401    9.7171 C.3     1  UNL1        0.0051
     12 C          64.4299   83.2280   11.0554 C.3     1  UNL1        0.0276
     13 C          63.1682   87.4413   12.3360 C.3     1  UNL1        0.1799
     14 CL         62.5261   88.3880   11.3657 Cl      1  UNL1       -0.1033
     15 C          64.5548   85.5209   14.1770 C.3     1  UNL1        0.0823
     16 C          65.8090   84.7183   14.3577 C.3     1  UNL1        0.0220
     17 C          64.3781   86.8132   14.9178 C.3     1  UNL1        0.0519
     18 C          63.6313   86.8361   16.2185 C.3     1  UNL1        0.1389
     19 O          62.9533   88.0949   16.6720 O.3     1  UNL1       -0.3819
     20 H          63.6214   88.7736   16.8564 H       1  UNL1        0.2104
@<TRIPOS>BOND
     1    11    12    1
     2    12     4    1
     3     4     5   ar
     4     5     6   ar
     5     6     7   ar
     6     7     8   ar
     7     8     9    1
     8     8    10   ar
     9    10     1    1
    10     1     2   am
    11     2     3    2
    12     2    13    1
    13    13    14    1
    14     1    15    1
    15    15    16    1
    16    15    17    1
    17    17    18    1
    18    18    19    1
    19    10     4   ar
    20    19    20    1
@<TRIPOS>MOLECULE
*****
 20 20 0 0 0
SMALL
GASTEIGER

@<TRIPOS>ATOM
      1 N          64.0749   89.8947   14.2125 N.am    1  UNL1       -0.2598
      2 C          63.3501   90.3309   15.4512 C.2     1  UNL1        0.2459
      3 O          63.3896   91.7689   15.8762 O.2     1  UNL1       -0.2732
      4 C          64.2603   91.4212   12.1183 C.ar    1  UNL1       -0.0088
      5 C          65.0246   92.4230   11.3046 C.ar    1  UNL1       -0.0031
      6 C          66.3679   92.9002   11.7714 C.ar    1  UNL1       -0.0006
      7 C          66.9469   92.3756   13.0518 C.ar    1  UNL1       -0.0030
      8 C          66.1825   91.3738   13.8655 C.ar    1  UNL1       -0.0085
      9 C          66.7615   90.8491   15.1460 C.3     1  UNL1        0.0323
     10 C          64.8392   90.8966   13.3988 C.ar    1  UNL1        0.0458
     11 C          62.6371   90.8095   10.1841 C.3     1  UNL1        0.0051
     12 C          62.9170   90.9440   11.6516 C.3     1  UNL1        0.0276
     13 C          62.5858   89.3290   16.2650 C.3     1  UNL1        0.1799
     14 CL         63.2573   88.6171   17.4017 Cl      1  UNL1       -0.1033
     15 C          64.0354   88.4568   13.7875 C.3     1  UNL1        0.0823
     16 C          63.3101   88.0647   12.5345 C.3     1  UNL1        0.0220
     17 C          64.7213   87.4108   14.6157 C.3     1  UNL1        0.0519
     18 C          64.2185   85.9976   14.6056 C.3     1  UNL1        0.1389
     19 O          65.1219   84.8772   15.0281 O.3     1  UNL1       -0.3819
     20 H          65.8520   84.7942   14.3949 H       1  UNL1        0.2104
@<TRIPOS>BOND
     1    11    12    1
     2    12     4    1
     3     4     5   ar
     4     5     6   ar
     5     6     7   ar
     6     7     8   ar
     7     8     9    1
     8     8    10   ar
     9    10     1    1
    10     1     2   am
    11     2     3    2
    12     2    13    1
    13    13    14    1
    14     1    15    1
    15    15    16    1
    16    15    17    1
    17    17    18    1
    18    18    19    1
    19    10     4   ar
    20    19    20    1
@<TRIPOS>MOLECULE
*****
 20 20 0 0 0
SMALL
GASTEIGER

@<TRIPOS>ATOM
      1 N          63.1182   84.4414   13.2144 N.am    1  UNL1       -0.2598
      2 C          62.3216   83.9063   14.3672 C.2     1  UNL1        0.2459
      3 O          61.5816   84.8489   15.2693 O.2     1  UNL1       -0.2732
      4 C          62.4257   86.5131   11.8077 C.ar    1  UNL1       -0.0088
      5 C          62.4824   87.9909   11.5571 C.ar    1  UNL1       -0.0031
      6 C          63.2881   88.8749   12.4623 C.ar    1  UNL1       -0.0006
      7 C          64.0371   88.2811   13.6182 C.ar    1  UNL1       -0.0030
      8 C          63.9805   86.8033   13.8689 C.ar    1  UNL1       -0.0085
      9 C          64.7297   86.2094   15.0249 C.3     1  UNL1        0.0323
     10 C          63.1748   85.9193   12.9637 C.ar    1  UNL1        0.0458
     11 C          61.7626   85.7506    9.4143 C.3     1  UNL1        0.0051
     12 C          61.6200   85.6292   10.9025 C.3     1  UNL1        0.0276
     13 C          62.2651   82.4284   14.6179 C.3     1  UNL1        0.1799
     14 CL         61.0970   81.6279   14.1231 Cl      1  UNL1       -0.1033
     15 C          63.8583   83.4988   12.3123 C.3     1  UNL1        0.0823
     16 C          65.3385   83.3156   12.4710 C.3     1  UNL1        0.0220
     17 C          63.1180   82.7394   11.2514 C.3     1  UNL1        0.0519
     18 C          63.0855   81.2402   11.2869 C.3     1  UNL1        0.1389
     19 O          63.0245   80.4608   10.0068 O.3     1  UNL1       -0.3819
     20 H          62.1781   80.6311    9.5646 H       1  UNL1        0.2104
@<TRIPOS>BOND
     1    11    12    1
     2    12     4    1
     3     4     5   ar
     4     5     6   ar
     5     6     7   ar
     6     7     8   ar
     7     8     9    1
     8     8    10   ar
     9    10     1    1
    10     1     2   am
    11     2     3    2
    12     2    13    1
    13    13    14    1
    14     1    15    1
    15    15    16    1
    16    15    17    1
    17    17    18    1
    18    18    19    1
    19    10     4   ar
    20    19    20    1
@<TRIPOS>MOLECULE
*****
 20 20 0 0 0
SMALL
GASTEIGER

@<TRIPOS>ATOM
      1 N          63.4173   84.8266   13.6055 N.am    1  UNL1       -0.2598
      2 C          62.5571   84.0415   14.5508 C.2     1  UNL1        0.2459
      3 O          61.6729   82.9482   14.0284 O.2     1  UNL1       -0.2732
      4 C          62.5836   85.3703   11.2056 C.ar    1  UNL1       -0.0088
      5 C          62.5597   85.0621    9.7378 C.ar    1  UNL1       -0.0031
      6 C          63.3453   83.9020    9.2021 C.ar    1  UNL1       -0.0006
      7 C          64.1548   83.0501   10.1341 C.ar    1  UNL1       -0.0030
      8 C          64.1788   83.3583   11.6019 C.ar    1  UNL1       -0.0085
      9 C          64.9885   82.5064   12.5340 C.3     1  UNL1        0.0323
     10 C          63.3932   84.5184   12.1376 C.ar    1  UNL1        0.0458
     11 C          60.8189   87.2451   10.8579 C.3     1  UNL1        0.0051
     12 C          61.7980   86.5304   11.7413 C.3     1  UNL1        0.0276
     13 C          62.5811   84.3496   16.0187 C.3     1  UNL1        0.1799
     14 CL         61.8856   85.5721   16.5399 Cl      1  UNL1       -0.1033
     15 C          64.3014   85.9199   14.1279 C.3     1  UNL1        0.0823
     16 C          65.5685   85.5772   14.8539 C.3     1  UNL1        0.0220
     17 C          63.9185   87.3558   13.9243 C.3     1  UNL1        0.0519
     18 C          64.2589   88.3780   14.9680 C.3     1  UNL1        0.1389
     19 O          63.2618   88.7215   16.0347 O.3     1  UNL1       -0.3819
     20 H          62.4918   89.1518   15.6311 H       1  UNL1        0.2104
@<TRIPOS>BOND
     1    11    12    1
     2    12     4    1
     3     4     5   ar
     4     5     6   ar
     5     6     7   ar
     6     7     8   ar
     7     8     9    1
     8     8    10   ar
     9    10     1    1
    10     1     2   am
    11     2     3    2
    12     2    13    1
    13    13    14    1
    14     1    15    1
    15    15    16    1
    16    15    17    1
    17    17    18    1
    18    18    19    1
    19    10     4   ar
    20    19    20    1
@<TRIPOS>MOLECULE
*****
 20 20 0 0 0
SMALL
GASTEIGER

@<TRIPOS>ATOM
      1 N          63.4449   85.0888   13.8378 N.am    1  UNL1       -0.2598
      2 C          62.5040   84.4465   14.8135 C.2     1  UNL1        0.2459
      3 O          61.4995   83.4403   14.3355 O.2     1  UNL1       -0.2732
      4 C          63.9922   83.4416   11.9046 C.ar    1  UNL1       -0.0088
      5 C          63.9286   83.0778   10.4508 C.ar    1  UNL1       -0.0031
      6 C          63.2541   83.9973    9.4763 C.ar    1  UNL1       -0.0006
      7 C          62.6431   85.2806    9.9557 C.ar    1  UNL1       -0.0030
      8 C          62.7068   85.6444   11.4095 C.ar    1  UNL1       -0.0085
      9 C          62.0958   86.9278   11.8889 C.3     1  UNL1        0.0323
     10 C          63.3813   84.7249   12.3839 C.ar    1  UNL1        0.0458
     11 C          63.9562   81.2946   13.3670 C.3     1  UNL1        0.0051
     12 C          64.6667   82.5221   12.8790 C.3     1  UNL1        0.0276
     13 C          62.5676   84.8104   16.2674 C.3     1  UNL1        0.1799
     14 CL         61.7179   85.9262   16.7991 Cl      1  UNL1       -0.1033
     15 C          64.4494   86.0950   14.3158 C.3     1  UNL1        0.0823
     16 C          65.7567   85.6353   14.8899 C.3     1  UNL1        0.0220
     17 C          64.1466   87.5611   14.2196 C.3     1  UNL1        0.0519
     18 C          63.8452   88.3476   15.4608 C.3     1  UNL1        0.1389
     19 O          62.8244   89.4460   15.4232 O.3     1  UNL1       -0.3819
     20 H          63.1407   90.1619   14.8502 H       1  UNL1        0.2104
@<TRIPOS>BOND
     1    11    12    1
     2    12     4    1
     3     4     5   ar
     4     5     6   ar
     5     6     7   ar
     6     7     8   ar
     7     8     9    1
     8     8    10   ar
     9    10     1    1
    10     1     2   am
    11     2     3    2
    12     2    13    1
    13    13    14    1
    14     1    15    1
    15    15    16    1
    16    15    17    1
    17    17    18    1
    18    18    19    1
    19    10     4   ar
    20    19    20    1
@<TRIPOS>MOLECULE
*****
 20 20 0 0 0
SMALL
GASTEIGER

@<TRIPOS>ATOM
      1 N          63.9553   89.9405   13.9720 N.am    1  UNL1       -0.2598
      2 C          63.3216   90.3645   15.2638 C.2     1  UNL1        0.2459
      3 O          63.4168   91.7925   15.7127 O.2     1  UNL1       -0.2732
      4 C          66.0225   91.4615   13.5674 C.ar    1  UNL1       -0.0088
      5 C          66.7514   92.4656   12.7245 C.ar    1  UNL1       -0.0031
      6 C          66.1420   92.9529   11.4434 C.ar    1  UNL1       -0.0006
      7 C          64.8038   92.4361   11.0052 C.ar    1  UNL1       -0.0030
      8 C          64.0749   91.4320   11.8481 C.ar    1  UNL1       -0.0085
      9 C          62.7367   90.9152   11.4098 C.3     1  UNL1        0.0323
     10 C          64.6843   90.9447   13.1292 C.ar    1  UNL1        0.0458
     11 C          67.7451   91.7470   15.4912 C.3     1  UNL1        0.0051
     12 C          66.6318   90.9741   14.8485 C.3     1  UNL1        0.0276
     13 C          62.5926   89.3603   16.1066 C.3     1  UNL1        0.1799
     14 CL         63.2747   88.7362   17.2878 Cl      1  UNL1       -0.1033
     15 C          63.8601   88.5125   13.5231 C.3     1  UNL1        0.0823
     16 C          64.5010   87.4266   14.3355 C.3     1  UNL1        0.0220
     17 C          63.1240   88.1703   12.2616 C.3     1  UNL1        0.0519
     18 C          62.7713   86.7434   11.9627 C.3     1  UNL1        0.1389
     19 O          61.3438   86.3619   11.7047 O.3     1  UNL1       -0.3819
     20 H          60.8233   86.4918   12.5128 H       1  UNL1        0.2104
@<TRIPOS>BOND
     1    11    12    1
     2    12     4    1
     3     4     5   ar
     4     5     6   ar
     5     6     7   ar
     6     7     8   ar
     7     8     9    1
     8     8    10   ar
     9    10     1    1
    10     1     2   am
    11     2     3    2
    12     2    13    1
    13    13    14    1
    14     1    15    1
    15    15    16    1
    16    15    17    1
    17    17    18    1
    18    18    19    1
    19    10     4   ar
    20    19    20    1
@<TRIPOS>MOLECULE
*****
 20 20 0 0 0
SMALL
GASTEIGER

@<TRIPOS>ATOM
      1 N          63.2875   85.2017   12.9088 N.am    1  UNL1       -0.2598
      2 C          62.5569   86.0624   11.9212 C.2     1  UNL1        0.2459
      3 O          61.5228   85.4566   11.0192 O.2     1  UNL1       -0.2732
      4 C          62.2010   83.1978   14.1555 C.ar    1  UNL1       -0.0088
      5 C          61.8975   81.7314   14.2411 C.ar    1  UNL1       -0.0031
      6 C          62.3769   80.8022   13.1655 C.ar    1  UNL1       -0.0006
      7 C          63.1599   81.3395   12.0044 C.ar    1  UNL1       -0.0030
      8 C          63.4634   82.8060   11.9189 C.ar    1  UNL1       -0.0085
      9 C          64.2464   83.3434   10.7577 C.3     1  UNL1        0.0323
     10 C          62.9839   83.7351   12.9944 C.ar    1  UNL1        0.0458
     11 C          62.5923   84.4126   16.4185 C.3     1  UNL1        0.0051
     12 C          61.7215   84.1270   15.2311 C.3     1  UNL1        0.0276
     13 C          62.8604   87.5289   11.8356 C.3     1  UNL1        0.1799
     14 CL         62.3488   88.3343   10.6783 Cl      1  UNL1       -0.1033
     15 C          64.3216   85.8074   13.8108 C.3     1  UNL1        0.0823
     16 C          65.4729   84.9771   14.2956 C.3     1  UNL1        0.0220
     17 C          64.2044   87.2435   14.2280 C.3     1  UNL1        0.0519
     18 C          63.8678   87.5866   15.6489 C.3     1  UNL1        0.1389
     19 O          63.1461   88.8639   15.9613 O.3     1  UNL1       -0.3819
     20 H          63.7149   89.6185   15.7425 H       1  UNL1        0.2104
@<TRIPOS>BOND
     1    11    12    1
     2    12     4    1
     3     4     5   ar
     4     5     6   ar
     5     6     7   ar
     6     7     8   ar
     7     8     9    1
     8     8    10   ar
     9    10     1    1
    10     1     2   am
    11     2     3    2
    12     2    13    1
    13    13    14    1
    14     1    15    1
    15    15    16    1
    16    15    17    1
    17    17    18    1
    18    18    19    1
    19    10     4   ar
    20    19    20    1
@<TRIPOS>MOLECULE
*****
 20 20 0 0 0
SMALL
GASTEIGER

@<TRIPOS>ATOM
      1 N          60.9490   94.2871   -0.2720 N.am    1  UNL1       -0.2598
      2 C          60.6186   95.7339   -0.0539 C.2     1  UNL1        0.2459
      3 O          61.1611   96.4547    1.1445 O.2     1  UNL1       -0.2732
      4 C          63.3017   93.4790    0.4776 C.ar    1  UNL1       -0.0088
      5 C          64.1745   92.7530    1.4579 C.ar    1  UNL1       -0.0031
      6 C          63.5675   92.1090    2.6691 C.ar    1  UNL1       -0.0006
      7 C          62.0876   92.1911    2.8999 C.ar    1  UNL1       -0.0030
      8 C          61.2149   92.9171    1.9195 C.ar    1  UNL1       -0.0085
      9 C          59.7349   92.9992    2.1503 C.3     1  UNL1        0.0323
     10 C          61.8219   93.5610    0.7084 C.ar    1  UNL1        0.0458
     11 C          64.5956   95.4509   -0.6121 C.3     1  UNL1        0.0051
     12 C          63.9088   94.1229   -0.7335 C.3     1  UNL1        0.0276
     13 C          59.7458   96.4599   -1.0343 C.3     1  UNL1        0.1799
     14 CL         58.3044   96.7169   -0.7082 Cl      1  UNL1       -0.1033
     15 C          60.4066   93.5663   -1.4704 C.3     1  UNL1        0.0823
     16 C          61.0283   93.7793   -2.8187 C.3     1  UNL1        0.0220
     17 C          59.2423   92.6324   -1.3204 C.3     1  UNL1        0.0519
     18 C          57.8873   93.1730   -0.9718 C.3     1  UNL1        0.1389
     19 O          56.7427   92.2328   -0.7354 O.3     1  UNL1       -0.3819
     20 H          56.5263   91.7728   -1.5615 H       1  UNL1        0.2104
@<TRIPOS>BOND
     1    11    12    1
     2    12     4    1
     3     4     5   ar
     4     5     6   ar
     5     6     7   ar
     6     7     8   ar
     7     8     9    1
     8     8    10   ar
     9    10     1    1
    10     1     2   am
    11     2     3    2
    12     2    13    1
    13    13    14    1
    14     1    15    1
    15    15    16    1
    16    15    17    1
    17    17    18    1
    18    18    19    1
    19    10     4   ar
    20    19    20    1
@<TRIPOS>MOLECULE
*****
 20 20 0 0 0
SMALL
GASTEIGER

@<TRIPOS>ATOM
      1 N          63.3065   85.4814   13.1436 N.am    1  UNL1       -0.2598
      2 C          64.2247   86.0985   14.1565 C.2     1  UNL1        0.2459
      3 O          64.9227   85.2319   15.1624 O.2     1  UNL1       -0.2732
      4 C          63.6294   83.1640   12.0142 C.ar    1  UNL1       -0.0088
      5 C          63.4090   81.6804   12.0073 C.ar    1  UNL1       -0.0031
      6 C          62.6453   81.0303   13.1228 C.ar    1  UNL1       -0.0006
      7 C          62.1021   81.8639   14.2452 C.ar    1  UNL1       -0.0030
      8 C          62.3225   83.3476   14.2521 C.ar    1  UNL1       -0.0085
      9 C          61.7792   84.1813   15.3746 C.3     1  UNL1        0.0323
     10 C          63.0861   83.9977   13.1367 C.ar    1  UNL1        0.0458
     11 C          63.8559   83.7734    9.4988 C.3     1  UNL1        0.0051
     12 C          64.3930   83.8141   10.8988 C.3     1  UNL1        0.0276
     13 C          64.4451   87.5823   14.1635 C.3     1  UNL1        0.1799
     14 CL         63.9560   88.4077   15.3165 Cl      1  UNL1       -0.1033
     15 C          62.6085   86.3480   12.1377 C.3     1  UNL1        0.0823
     16 C          61.4761   85.7922   11.3262 C.3     1  UNL1        0.0220
     17 C          63.0430   87.7706   11.9434 C.3     1  UNL1        0.0519
     18 C          62.0367   88.8173   11.5671 C.3     1  UNL1        0.1389
     19 O          61.6075   89.8418   12.5752 O.3     1  UNL1       -0.3819
     20 H          61.1259   89.4051   13.2951 H       1  UNL1        0.2104
@<TRIPOS>BOND
     1    11    12    1
     2    12     4    1
     3     4     5   ar
     4     5     6   ar
     5     6     7   ar
     6     7     8   ar
     7     8     9    1
     8     8    10   ar
     9    10     1    1
    10     1     2   am
    11     2     3    2
    12     2    13    1
    13    13    14    1
    14     1    15    1
    15    15    16    1
    16    15    17    1
    17    17    18    1
    18    18    19    1
    19    10     4   ar
    20    19    20    1
