@<TRIPOS>MOLECULE
*****
 38 41 0 0 0
SMALL
GASTEIGER

@<TRIPOS>ATOM
      1 C          63.2697   86.3213   15.3339 C.ar    1  UNL1        0.0078
      2 C          62.9876   85.7220   16.6796 C.ar    1  UNL1        0.0006
      3 C          62.8763   86.6064   17.8860 C.ar    1  UNL1        0.0013
      4 C          63.0469   88.0901   17.7466 C.ar    1  UNL1        0.0143
      5 C          63.3290   88.6894   16.4008 C.ar    1  UNL1        0.0446
      6 C          63.4403   87.8051   15.1945 C.ar    1  UNL1        0.0148
      7 C          63.7768   83.5089   12.7073 C.ar    1  UNL1        0.1527
      8 C          63.3280   84.6433   11.8343 C.ar    1  UNL1        0.0779
      9 S          63.0835   85.8348   12.7120 S.2     1  UNL1       -0.0821
     10 C          63.3810   85.4369   14.1274 C.ar    1  UNL1        0.0388
     11 C          63.8095   83.9995   14.1244 C.ar    1  UNL1        0.0750
     12 BR         64.2018   83.1939   15.3274 Br      1  UNL1       -0.0453
     13 C          63.1544   84.5946   10.3452 C.2     1  UNL1        0.0818
     14 O          62.2095   85.5432    9.6689 O.co2   1  UNL1       -0.5440
     15 O          63.9256   83.5973    9.5325 O.co2   1  UNL1       -0.5440
     16 O          64.1306   82.1267   12.2443 O.3     1  UNL1       -0.4683
     17 C          63.0791   81.0579   12.2017 C.3     1  UNL1        0.2469
     18 O          63.3375   79.7923   14.4558 O.co2   1  UNL1       -0.5454
     19 C          62.4824   80.5414   13.4774 C.2     1  UNL1        0.0940
     20 O          61.0307   80.7742   13.7745 O.co2   1  UNL1       -0.5454
     21 N          63.4996   90.1732   16.2614 N.pl3   1  UNL1       -0.3339
     22 H          63.1389   90.7770   16.9502 H       1  UNL1        0.1468
     23 C          64.2200   90.7368   15.0726 C.3     1  UNL1        0.0719
     24 C          63.5950   90.6599   13.7111 C.3     1  UNL1        0.0386
     25 C          64.3153   91.2236   12.5223 C.3     1  UNL1        0.0971
     26 N          65.6606   91.8642   12.6948 N.3     1  UNL1       -0.1590
     27 C          66.2856   91.9412   14.0562 C.3     1  UNL1        0.0971
     28 C          65.5652   91.3775   15.2452 C.3     1  UNL1        0.0386
     29 S          66.3809   92.4279   11.5059 S.O2    1  UNL1        0.0481
     30 O          65.1224   92.3274   10.6959 O.2     1  UNL1       -0.1570
     31 O          67.6393   92.5284   12.3159 O.2     1  UNL1       -0.1570
     32 C          67.1011   92.9916   10.3170 C.3     1  UNL1        0.1954
     33 C          66.6397   94.2795    9.7019 C.ar    1  UNL1        0.0029
     34 C          65.6302   95.1310   10.4130 C.ar    1  UNL1       -0.0025
     35 C          65.1689   96.4189    9.7978 C.ar    1  UNL1       -0.0003
     36 C          65.7170   96.8553    8.4715 C.ar    1  UNL1       -0.0000
     37 C          66.7265   96.0037    7.7604 C.ar    1  UNL1       -0.0003
     38 C          67.1879   94.7158    8.3756 C.ar    1  UNL1       -0.0025
@<TRIPOS>UNITY_ATOM_ATTR
14 1
charge -1
18 1
charge -1
@<TRIPOS>BOND
     1    18    19   ar
     2    19    20   ar
     3    19    17    1
     4    17    16    1
     5    16     7    1
     6     7     8   ar
     7     8    13    1
     8    13    14   ar
     9    13    15   ar
    10     8     9   ar
    11     9    10   ar
    12    10     1    1
    13     1     2   ar
    14     2     3   ar
    15     3     4   ar
    16     4     5   ar
    17     5    21    1
    18    21    23    1
    19    23    24    1
    20    24    25    1
    21    25    26    1
    22    26    29    1
    23    29    30    2
    24    29    31    2
    25    29    32    1
    26    32    33    1
    27    33    34   ar
    28    34    35   ar
    29    35    36   ar
    30    36    37   ar
    31    37    38   ar
    32    26    27    1
    33    27    28    1
    34     5     6   ar
    35    10    11   ar
    36    11    12    1
    37    11     7   ar
    38     6     1   ar
    39    28    23    1
    40    38    33   ar
    41    21    22    1
@<TRIPOS>MOLECULE
*****
 38 41 0 0 0
SMALL
GASTEIGER

@<TRIPOS>ATOM
      1 C          61.6387   88.2287    9.7593 C.ar    1  UNL1        0.0078
      2 C          61.9771   86.8200    9.3707 C.ar    1  UNL1        0.0006
      3 C          61.2289   86.1489    8.2572 C.ar    1  UNL1        0.0013
      4 C          60.1425   86.8865    7.5323 C.ar    1  UNL1        0.0143
      5 C          59.8041   88.2952    7.9209 C.ar    1  UNL1        0.0446
      6 C          60.5523   88.9663    9.0344 C.ar    1  UNL1        0.0148
      7 C          63.5627   90.5672   12.1873 C.ar    1  UNL1        0.1527
      8 C          63.5136   89.2980   12.9853 C.ar    1  UNL1        0.0779
      9 S          62.7870   88.2675   12.1728 S.2     1  UNL1       -0.0821
     10 C          62.3869   88.8999   10.8728 C.ar    1  UNL1        0.0388
     11 C          62.8663   90.3211   10.8817 C.ar    1  UNL1        0.0750
     12 BR         62.6818   91.3209    9.7788 Br      1  UNL1       -0.0453
     13 C          64.0900   89.0949   14.3551 C.2     1  UNL1        0.0818
     14 O          64.1529   90.2418   15.3200 O.co2   1  UNL1       -0.5440
     15 O          64.6036   87.7450   14.7602 O.co2   1  UNL1       -0.5440
     16 O          64.1968   91.8562   12.6191 O.3     1  UNL1       -0.4683
     17 C          65.5201   92.2698   12.0467 C.3     1  UNL1        0.2469
     18 O          66.8238   94.4434   11.4762 O.co2   1  UNL1       -0.5454
     19 C          66.1581   93.5548   12.4847 C.2     1  UNL1        0.0940
     20 O          66.1305   93.9510   13.9311 O.co2   1  UNL1       -0.5454
     21 N          58.7176   89.0328    7.1960 N.pl3   1  UNL1       -0.3339
     22 H          57.7737   88.8580    7.4143 H       1  UNL1        0.1468
     23 C          59.0693   90.0368    6.1385 C.3     1  UNL1        0.0719
     24 C          60.4909   90.1770    5.6806 C.3     1  UNL1        0.0386
     25 C          60.8426   91.1810    4.6231 C.3     1  UNL1        0.0971
     26 N          59.7728   92.0448    4.0235 N.3     1  UNL1       -0.1590
     27 C          58.3513   91.9046    4.4814 C.3     1  UNL1        0.0971
     28 C          57.9996   90.9006    5.5389 C.3     1  UNL1        0.0386
     29 S          60.1245   93.0488    2.9660 S.O2    1  UNL1        0.0481
     30 O          60.4776   91.9347    2.0258 O.2     1  UNL1       -0.1570
     31 O          59.7715   94.1629    3.9062 O.2     1  UNL1       -0.1570
     32 C          60.4763   94.0528    1.9085 C.3     1  UNL1        0.1954
     33 C          61.7861   93.9518    1.1845 C.ar    1  UNL1        0.0029
     34 C          61.8116   93.8834   -0.3137 C.ar    1  UNL1       -0.0025
     35 C          63.1215   93.7824   -1.0377 C.ar    1  UNL1       -0.0003
     36 C          64.4058   93.7499   -0.2635 C.ar    1  UNL1       -0.0000
     37 C          64.3803   93.8183    1.2347 C.ar    1  UNL1       -0.0003
     38 C          63.0704   93.9192    1.9587 C.ar    1  UNL1       -0.0025
@<TRIPOS>UNITY_ATOM_ATTR
14 1
charge -1
18 1
charge -1
@<TRIPOS>BOND
     1    18    19   ar
     2    19    20   ar
     3    19    17    1
     4    17    16    1
     5    16     7    1
     6     7     8   ar
     7     8    13    1
     8    13    14   ar
     9    13    15   ar
    10     8     9   ar
    11     9    10   ar
    12    10     1    1
    13     1     2   ar
    14     2     3   ar
    15     3     4   ar
    16     4     5   ar
    17     5    21    1
    18    21    23    1
    19    23    24    1
    20    24    25    1
    21    25    26    1
    22    26    29    1
    23    29    30    2
    24    29    31    2
    25    29    32    1
    26    32    33    1
    27    33    34   ar
    28    34    35   ar
    29    35    36   ar
    30    36    37   ar
    31    37    38   ar
    32    26    27    1
    33    27    28    1
    34     5     6   ar
    35    10    11   ar
    36    11    12    1
    37    11     7   ar
    38     6     1   ar
    39    28    23    1
    40    38    33   ar
    41    21    22    1
@<TRIPOS>MOLECULE
*****
 38 41 0 0 0
SMALL
GASTEIGER

@<TRIPOS>ATOM
      1 C          61.0836   87.9026    9.3757 C.ar    1  UNL1        0.0078
      2 C          61.1415   86.4810    8.9005 C.ar    1  UNL1        0.0006
      3 C          60.3241   86.0516    7.7185 C.ar    1  UNL1        0.0013
      4 C          59.4488   87.0436    7.0115 C.ar    1  UNL1        0.0143
      5 C          59.3910   88.4652    7.4867 C.ar    1  UNL1        0.0446
      6 C          60.2084   88.8947    8.6687 C.ar    1  UNL1        0.0148
      7 C          63.2029   88.2802   12.6055 C.ar    1  UNL1        0.1527
      8 C          63.1150   89.7061   12.1482 C.ar    1  UNL1        0.0779
      9 S          62.3104   89.7382   10.8827 S.2     1  UNL1       -0.0821
     10 C          61.9011   88.3321   10.5578 C.ar    1  UNL1        0.0388
     11 C          62.4527   87.4311   11.6226 C.ar    1  UNL1        0.0750
     12 BR         62.2837   85.9423   11.6923 Br      1  UNL1       -0.0453
     13 C          63.7246   90.8917   12.8357 C.2     1  UNL1        0.0818
     14 O          63.4448   91.1423   14.2880 O.co2   1  UNL1       -0.5440
     15 O          64.6139   91.8268   12.0710 O.co2   1  UNL1       -0.5440
     16 O          63.9159   87.7896   13.8307 O.3     1  UNL1       -0.4683
     17 C          64.2764   86.3392   13.9583 C.3     1  UNL1        0.2469
     18 O          64.2081   84.1144   15.2982 O.co2   1  UNL1       -0.5454
     19 C          63.8981   85.5783   15.1944 C.2     1  UNL1        0.0940
     20 O          63.2098   86.2813   16.3267 O.co2   1  UNL1       -0.5454
     21 N          58.5158   89.4573    6.7797 N.pl3   1  UNL1       -0.3339
     22 H          57.5545   89.5017    6.9877 H       1  UNL1        0.1468
     23 C          59.1051   90.3816    5.7559 C.3     1  UNL1        0.0719
     24 C          60.5762   90.3392    5.4656 C.3     1  UNL1        0.0386
     25 C          61.1655   91.2635    4.4417 C.3     1  UNL1        0.0971
     26 N          60.2838   92.2302    3.7081 N.3     1  UNL1       -0.1590
     27 C          58.8128   92.2726    3.9984 C.3     1  UNL1        0.0971
     28 C          58.2234   91.3483    5.0223 C.3     1  UNL1        0.0386
     29 S          60.8732   93.1546    2.6842 S.O2    1  UNL1        0.0481
     30 O          61.8744   92.1020    2.3104 O.2     1  UNL1       -0.1570
     31 O          59.8720   94.2071    3.0580 O.2     1  UNL1       -0.1570
     32 C          61.4626   94.0788    1.6604 C.3     1  UNL1        0.1954
     33 C          61.1393   93.8927    0.2075 C.ar    1  UNL1        0.0029
     34 C          62.2457   93.7283   -0.7920 C.ar    1  UNL1       -0.0025
     35 C          61.9224   93.5422   -2.2448 C.ar    1  UNL1       -0.0003
     36 C          60.4928   93.5205   -2.6983 C.ar    1  UNL1       -0.0000
     37 C          59.3865   93.6848   -1.6989 C.ar    1  UNL1       -0.0003
     38 C          59.7097   93.8710   -0.2460 C.ar    1  UNL1       -0.0025
@<TRIPOS>UNITY_ATOM_ATTR
14 1
charge -1
18 1
charge -1
@<TRIPOS>BOND
     1    18    19   ar
     2    19    20   ar
     3    19    17    1
     4    17    16    1
     5    16     7    1
     6     7     8   ar
     7     8    13    1
     8    13    14   ar
     9    13    15   ar
    10     8     9   ar
    11     9    10   ar
    12    10     1    1
    13     1     2   ar
    14     2     3   ar
    15     3     4   ar
    16     4     5   ar
    17     5    21    1
    18    21    23    1
    19    23    24    1
    20    24    25    1
    21    25    26    1
    22    26    29    1
    23    29    30    2
    24    29    31    2
    25    29    32    1
    26    32    33    1
    27    33    34   ar
    28    34    35   ar
    29    35    36   ar
    30    36    37   ar
    31    37    38   ar
    32    26    27    1
    33    27    28    1
    34     5     6   ar
    35    10    11   ar
    36    11    12    1
    37    11     7   ar
    38     6     1   ar
    39    28    23    1
    40    38    33   ar
    41    21    22    1
@<TRIPOS>MOLECULE
*****
 38 41 0 0 0
SMALL
GASTEIGER

@<TRIPOS>ATOM
      1 C          62.6551   84.6845   10.4911 C.ar    1  UNL1        0.0078
      2 C          62.9634   84.1358    9.1296 C.ar    1  UNL1        0.0006
      3 C          62.7715   84.9936    7.9142 C.ar    1  UNL1        0.0013
      4 C          62.2713   86.4001    8.0602 C.ar    1  UNL1        0.0143
      5 C          61.9629   86.9489    9.4217 C.ar    1  UNL1        0.0446
      6 C          62.1548   86.0911   10.6371 C.ar    1  UNL1        0.0148
      7 C          63.3100   83.1162   13.9806 C.ar    1  UNL1        0.1527
      8 C          62.9744   81.8972   13.1734 C.ar    1  UNL1        0.0779
      9 S          62.6883   82.3364   11.7680 S.2     1  UNL1       -0.0821
     10 C          62.8469   83.8267   11.7066 C.ar    1  UNL1        0.0388
     11 C          63.2312   84.3086   13.0741 C.ar    1  UNL1        0.0750
     12 BR         63.4910   85.7329   13.4663 Br      1  UNL1       -0.0453
     13 C          62.9324   80.4868   13.6822 C.2     1  UNL1        0.0818
     14 O          61.7550   79.6115   13.3697 O.co2   1  UNL1       -0.5440
     15 O          64.0678   79.9517   14.5035 O.co2   1  UNL1       -0.5440
     16 O          63.6624   83.1386   15.4385 O.3     1  UNL1       -0.4683
     17 C          62.7260   83.7680   16.4269 C.3     1  UNL1        0.2469
     18 O          61.5716   85.9895   17.1213 O.co2   1  UNL1       -0.5454
     19 C          62.8008   85.2415   16.6976 C.2     1  UNL1        0.0940
     20 O          64.1047   85.9670   16.5447 O.co2   1  UNL1       -0.5454
     21 N          61.4626   88.3554    9.5678 N.pl3   1  UNL1       -0.3339
     22 H          60.5635   88.5941    9.2455 H       1  UNL1        0.1468
     23 C          62.3322   89.3984   10.2049 C.3     1  UNL1        0.0719
     24 C          62.8241   89.2090   11.6094 C.3     1  UNL1        0.0386
     25 C          63.6937   90.2520   12.2465 C.3     1  UNL1        0.0971
     26 N          64.0715   91.4843   11.4793 N.3     1  UNL1       -0.1590
     27 C          63.5797   91.6737   10.0750 C.3     1  UNL1        0.0971
     28 C          62.7101   90.6307    9.4377 C.3     1  UNL1        0.0386
     29 S          64.9411   92.5273   12.1165 S.O2    1  UNL1        0.0481
     30 O          64.5040   92.0624   13.4740 O.2     1  UNL1       -0.1570
     31 O          65.3783   92.9922   10.7591 O.2     1  UNL1       -0.1570
     32 C          65.8107   93.5702   12.7538 C.3     1  UNL1        0.1954
     33 C          66.8691   93.1658   13.7368 C.ar    1  UNL1        0.0029
     34 C          67.8320   92.0682   13.3931 C.ar    1  UNL1       -0.0025
     35 C          68.8903   91.6638   14.3761 C.ar    1  UNL1       -0.0003
     36 C          68.9858   92.3570   15.7029 C.ar    1  UNL1       -0.0000
     37 C          68.0229   93.4545   16.0467 C.ar    1  UNL1       -0.0003
     38 C          66.9645   93.8589   15.0636 C.ar    1  UNL1       -0.0025
@<TRIPOS>UNITY_ATOM_ATTR
14 1
charge -1
18 1
charge -1
@<TRIPOS>BOND
     1    18    19   ar
     2    19    20   ar
     3    19    17    1
     4    17    16    1
     5    16     7    1
     6     7     8   ar
     7     8    13    1
     8    13    14   ar
     9    13    15   ar
    10     8     9   ar
    11     9    10   ar
    12    10     1    1
    13     1     2   ar
    14     2     3   ar
    15     3     4   ar
    16     4     5   ar
    17     5    21    1
    18    21    23    1
    19    23    24    1
    20    24    25    1
    21    25    26    1
    22    26    29    1
    23    29    30    2
    24    29    31    2
    25    29    32    1
    26    32    33    1
    27    33    34   ar
    28    34    35   ar
    29    35    36   ar
    30    36    37   ar
    31    37    38   ar
    32    26    27    1
    33    27    28    1
    34     5     6   ar
    35    10    11   ar
    36    11    12    1
    37    11     7   ar
    38     6     1   ar
    39    28    23    1
    40    38    33   ar
    41    21    22    1
@<TRIPOS>MOLECULE
*****
 38 41 0 0 0
SMALL
GASTEIGER

@<TRIPOS>ATOM
      1 C          61.4908   88.2599    9.6962 C.ar    1  UNL1        0.0078
      2 C          61.6754   86.8118    9.3511 C.ar    1  UNL1        0.0006
      3 C          60.8662   86.1944    8.2494 C.ar    1  UNL1        0.0013
      4 C          59.8723   87.0249    7.4927 C.ar    1  UNL1        0.0143
      5 C          59.6877   88.4729    7.8378 C.ar    1  UNL1        0.0446
      6 C          60.4970   89.0904    8.9395 C.ar    1  UNL1        0.0148
      7 C          63.5676   90.4745   12.1145 C.ar    1  UNL1        0.1527
      8 C          63.5230   89.1807   12.8723 C.ar    1  UNL1        0.0779
      9 S          62.7396   88.1937   12.0587 S.2     1  UNL1       -0.0821
     10 C          62.3000   88.8774   10.7980 C.ar    1  UNL1        0.0388
     11 C          62.8118   90.2870   10.8324 C.ar    1  UNL1        0.0750
     12 BR         62.6042   91.3266    9.7713 Br      1  UNL1       -0.0453
     13 C          64.1514   88.9199   14.2091 C.2     1  UNL1        0.0818
     14 O          65.0617   89.9423   14.8223 O.co2   1  UNL1       -0.5440
     15 O          63.8695   87.6366   14.9328 O.co2   1  UNL1       -0.5440
     16 O          64.2485   91.7345   12.5603 O.3     1  UNL1       -0.4683
     17 C          65.5630   92.1307   11.9563 C.3     1  UNL1        0.2469
     18 O          67.7189   92.4892   13.3611 O.co2   1  UNL1       -0.5454
     19 C          66.4884   93.0427   12.7059 C.2     1  UNL1        0.0940
     20 O          66.1832   94.5083   12.8004 O.co2   1  UNL1       -0.5454
     21 N          58.6939   89.3035    7.0811 N.pl3   1  UNL1       -0.3339
     22 H          57.7344   89.2352    7.2906 H       1  UNL1        0.1468
     23 C          59.1620   90.2381    6.0054 C.3     1  UNL1        0.0719
     24 C          58.1763   91.1178    5.2950 C.3     1  UNL1        0.0386
     25 C          58.6445   92.0525    4.2192 C.3     1  UNL1        0.0971
     26 N          60.0982   92.1075    3.8538 N.3     1  UNL1       -0.1590
     27 C          61.0839   91.2278    4.5642 C.3     1  UNL1        0.0971
     28 C          60.6158   90.2931    5.6400 C.3     1  UNL1        0.0386
     29 S          60.5663   93.0422    2.7780 S.O2    1  UNL1        0.0481
     30 O          61.3768   91.9362    2.1699 O.2     1  UNL1       -0.1570
     31 O          59.7558   94.1481    3.3862 O.2     1  UNL1       -0.1570
     32 C          61.0344   93.9768    1.7023 C.3     1  UNL1        0.1954
     33 C          60.5876   93.7729    0.2849 C.ar    1  UNL1        0.0029
     34 C          59.1471   93.4793   -0.0125 C.ar    1  UNL1       -0.0025
     35 C          58.7003   93.2754   -1.4298 C.ar    1  UNL1       -0.0003
     36 C          59.6941   93.3650   -2.5497 C.ar    1  UNL1       -0.0000
     37 C          61.1346   93.6587   -2.2523 C.ar    1  UNL1       -0.0003
     38 C          61.5814   93.8626   -0.8350 C.ar    1  UNL1       -0.0025
@<TRIPOS>UNITY_ATOM_ATTR
14 1
charge -1
18 1
charge -1
@<TRIPOS>BOND
     1    18    19   ar
     2    19    20   ar
     3    19    17    1
     4    17    16    1
     5    16     7    1
     6     7     8   ar
     7     8    13    1
     8    13    14   ar
     9    13    15   ar
    10     8     9   ar
    11     9    10   ar
    12    10     1    1
    13     1     2   ar
    14     2     3   ar
    15     3     4   ar
    16     4     5   ar
    17     5    21    1
    18    21    23    1
    19    23    24    1
    20    24    25    1
    21    25    26    1
    22    26    29    1
    23    29    30    2
    24    29    31    2
    25    29    32    1
    26    32    33    1
    27    33    34   ar
    28    34    35   ar
    29    35    36   ar
    30    36    37   ar
    31    37    38   ar
    32    26    27    1
    33    27    28    1
    34     5     6   ar
    35    10    11   ar
    36    11    12    1
    37    11     7   ar
    38     6     1   ar
    39    28    23    1
    40    38    33   ar
    41    21    22    1
@<TRIPOS>MOLECULE
*****
 38 41 0 0 0
SMALL
GASTEIGER

@<TRIPOS>ATOM
      1 C          61.8060   85.8198   10.5489 C.ar    1  UNL1        0.0078
      2 C          61.3379   85.2094    9.2611 C.ar    1  UNL1        0.0006
      3 C          60.7167   86.0733    8.2039 C.ar    1  UNL1        0.0013
      4 C          60.5636   87.5476    8.4345 C.ar    1  UNL1        0.0143
      5 C          61.0316   88.1579    9.7222 C.ar    1  UNL1        0.0446
      6 C          61.6528   87.2940   10.7794 C.ar    1  UNL1        0.0148
      7 C          63.7143   83.2140   12.7015 C.ar    1  UNL1        0.1527
      8 C          63.0519   84.0390   13.7649 C.ar    1  UNL1        0.0779
      9 S          62.2564   85.1155   13.0879 S.2     1  UNL1       -0.0821
     10 C          62.4272   84.9558   11.6062 C.ar    1  UNL1        0.0388
     11 C          63.3282   83.7807   11.3674 C.ar    1  UNL1        0.0750
     12 BR         63.7663   83.2630   10.0295 Br      1  UNL1       -0.0453
     13 C          63.1651   83.8251   15.2452 C.2     1  UNL1        0.0818
     14 O          62.1959   84.4921   16.1757 O.co2   1  UNL1       -0.5440
     15 O          64.2475   82.9441   15.7950 O.co2   1  UNL1       -0.5440
     16 O          64.6063   82.0302   12.9319 O.3     1  UNL1       -0.4683
     17 C          64.0285   80.7442   13.4440 C.3     1  UNL1        0.2469
     18 O          61.4428   80.6991   13.6928 O.co2   1  UNL1       -0.5454
     19 C          62.6850   80.2815   12.9632 C.2     1  UNL1        0.0940
     20 O          62.5839   79.4013   11.7529 O.co2   1  UNL1       -0.5454
     21 N          60.8785   89.6321    9.9528 N.pl3   1  UNL1       -0.3339
     22 H          60.0268   90.0778    9.7398 H       1  UNL1        0.1468
     23 C          62.0229   90.4273   10.5077 C.3     1  UNL1        0.0719
     24 C          62.8955   91.2284    9.5874 C.3     1  UNL1        0.0386
     25 C          64.0399   92.0236   10.1423 C.3     1  UNL1        0.0971
     26 N          64.3117   92.0178   11.6175 N.3     1  UNL1       -0.1590
     27 C          63.4391   91.2168   12.5377 C.3     1  UNL1        0.0971
     28 C          62.2947   90.4215   11.9828 C.3     1  UNL1        0.0386
     29 S          65.4562   92.8131   12.1724 S.O2    1  UNL1        0.0481
     30 O          65.0361   92.4460   13.5648 O.2     1  UNL1       -0.1570
     31 O          65.8763   93.1801   10.7800 O.2     1  UNL1       -0.1570
     32 C          66.6006   93.6083   12.7273 C.3     1  UNL1        0.1954
     33 C          67.3066   93.1425   13.9661 C.ar    1  UNL1        0.0029
     34 C          67.6847   94.1300   15.0300 C.ar    1  UNL1       -0.0025
     35 C          68.3907   93.6642   16.2688 C.ar    1  UNL1       -0.0003
     36 C          68.7186   92.2110   16.4437 C.ar    1  UNL1       -0.0000
     37 C          68.3405   91.2236   15.3798 C.ar    1  UNL1       -0.0003
     38 C          67.6345   91.6893   14.1410 C.ar    1  UNL1       -0.0025
@<TRIPOS>UNITY_ATOM_ATTR
14 1
charge -1
18 1
charge -1
@<TRIPOS>BOND
     1    18    19   ar
     2    19    20   ar
     3    19    17    1
     4    17    16    1
     5    16     7    1
     6     7     8   ar
     7     8    13    1
     8    13    14   ar
     9    13    15   ar
    10     8     9   ar
    11     9    10   ar
    12    10     1    1
    13     1     2   ar
    14     2     3   ar
    15     3     4   ar
    16     4     5   ar
    17     5    21    1
    18    21    23    1
    19    23    24    1
    20    24    25    1
    21    25    26    1
    22    26    29    1
    23    29    30    2
    24    29    31    2
    25    29    32    1
    26    32    33    1
    27    33    34   ar
    28    34    35   ar
    29    35    36   ar
    30    36    37   ar
    31    37    38   ar
    32    26    27    1
    33    27    28    1
    34     5     6   ar
    35    10    11   ar
    36    11    12    1
    37    11     7   ar
    38     6     1   ar
    39    28    23    1
    40    38    33   ar
    41    21    22    1
@<TRIPOS>MOLECULE
*****
 38 41 0 0 0
SMALL
GASTEIGER

@<TRIPOS>ATOM
      1 C          63.2974   86.4287   15.6982 C.ar    1  UNL1        0.0078
      2 C          62.9747   85.9184   17.0713 C.ar    1  UNL1        0.0006
      3 C          62.8014   86.8819   18.2078 C.ar    1  UNL1        0.0013
      4 C          62.9506   88.3555   17.9712 C.ar    1  UNL1        0.0143
      5 C          63.2733   88.8658   16.5981 C.ar    1  UNL1        0.0446
      6 C          63.4466   87.9023   15.4616 C.ar    1  UNL1        0.0148
      7 C          63.5631   84.5257   12.3257 C.ar    1  UNL1        0.1527
      8 C          63.9120   83.4395   13.2996 C.ar    1  UNL1        0.0779
      9 S          63.8549   84.0202   14.6815 S.2     1  UNL1       -0.0821
     10 C          63.4707   85.4652   14.5616 C.ar    1  UNL1        0.0388
     11 C          63.2904   85.7776   13.1056 C.ar    1  UNL1        0.0750
     12 BR         62.9049   87.1083   12.5305 Br      1  UNL1       -0.0453
     13 C          64.2574   82.0217   12.9526 C.2     1  UNL1        0.0818
     14 O          63.8350   80.9035   13.8589 O.co2   1  UNL1       -0.5440
     15 O          65.0251   81.7220   11.6993 O.co2   1  UNL1       -0.5440
     16 O          63.4982   84.3847   10.8337 O.3     1  UNL1       -0.4683
     17 C          62.3126   84.9120   10.0813 C.3     1  UNL1        0.2469
     18 O          62.3246   87.2860    9.0261 O.co2   1  UNL1       -0.5454
     19 C          62.5148   85.8042    8.8926 C.2     1  UNL1        0.0940
     20 O          62.9073   85.2145    7.5704 O.co2   1  UNL1       -0.5454
     21 N          63.4225   90.3395   16.3614 N.pl3   1  UNL1       -0.3339
     22 H          63.0425   90.9820   17.0032 H       1  UNL1        0.1468
     23 C          64.1509   90.8341   15.1471 C.3     1  UNL1        0.0719
     24 C          63.5115   90.7288   13.7942 C.3     1  UNL1        0.0386
     25 C          64.2398   91.2234   12.5798 C.3     1  UNL1        0.0971
     26 N          65.6076   91.8234   12.7182 N.3     1  UNL1       -0.1590
     27 C          66.2471   91.9287   14.0709 C.3     1  UNL1        0.0971
     28 C          65.5187   91.4341   15.2854 C.3     1  UNL1        0.0386
     29 S          66.3360   92.3180   11.5037 S.O2    1  UNL1        0.0481
     30 O          65.0699   92.2217   10.7052 O.2     1  UNL1       -0.1570
     31 O          67.6021   92.4144   12.3022 O.2     1  UNL1       -0.1570
     32 C          67.0643   92.8126   10.2893 C.3     1  UNL1        0.1954
     33 C          66.7359   94.1585    9.7141 C.ar    1  UNL1        0.0029
     34 C          67.2702   94.5496    8.3682 C.ar    1  UNL1       -0.0025
     35 C          66.9418   95.8955    7.7931 C.ar    1  UNL1       -0.0003
     36 C          66.0790   96.8502    8.5638 C.ar    1  UNL1       -0.0000
     37 C          65.5447   96.4591    9.9097 C.ar    1  UNL1       -0.0003
     38 C          65.8731   95.1133   10.4849 C.ar    1  UNL1       -0.0025
@<TRIPOS>UNITY_ATOM_ATTR
14 1
charge -1
18 1
charge -1
@<TRIPOS>BOND
     1    18    19   ar
     2    19    20   ar
     3    19    17    1
     4    17    16    1
     5    16     7    1
     6     7     8   ar
     7     8    13    1
     8    13    14   ar
     9    13    15   ar
    10     8     9   ar
    11     9    10   ar
    12    10     1    1
    13     1     2   ar
    14     2     3   ar
    15     3     4   ar
    16     4     5   ar
    17     5    21    1
    18    21    23    1
    19    23    24    1
    20    24    25    1
    21    25    26    1
    22    26    29    1
    23    29    30    2
    24    29    31    2
    25    29    32    1
    26    32    33    1
    27    33    34   ar
    28    34    35   ar
    29    35    36   ar
    30    36    37   ar
    31    37    38   ar
    32    26    27    1
    33    27    28    1
    34     5     6   ar
    35    10    11   ar
    36    11    12    1
    37    11     7   ar
    38     6     1   ar
    39    28    23    1
    40    38    33   ar
    41    21    22    1
@<TRIPOS>MOLECULE
*****
 38 41 0 0 0
SMALL
GASTEIGER

@<TRIPOS>ATOM
      1 C          64.1570   88.1721   13.9465 C.ar    1  UNL1        0.0078
      2 C          64.3395   87.4668   15.2576 C.ar    1  UNL1        0.0006
      3 C          63.9540   86.0235   15.3927 C.ar    1  UNL1        0.0013
      4 C          63.3861   85.2856   14.2167 C.ar    1  UNL1        0.0143
      5 C          63.2036   85.9910   12.9056 C.ar    1  UNL1        0.0446
      6 C          63.5890   87.4343   12.7705 C.ar    1  UNL1        0.0148
      7 C          64.7561   91.8774   12.9577 C.ar    1  UNL1        0.1527
      8 C          65.5150   91.7957   14.2491 C.ar    1  UNL1        0.0779
      9 S          65.3829   90.3978   14.7766 S.2     1  UNL1       -0.0821
     10 C          64.5424   89.6155   13.8113 C.ar    1  UNL1        0.0388
     11 C          64.1550   90.5300   12.6872 C.ar    1  UNL1        0.0750
     12 BR         63.3142   90.1618   11.5009 Br      1  UNL1       -0.0453
     13 C          66.2729   92.9153   14.8987 C.2     1  UNL1        0.0818
     14 O          66.7870   92.7595   16.2992 O.co2   1  UNL1       -0.5440
     15 O          66.5166   94.1908   14.1479 O.co2   1  UNL1       -0.5440
     16 O          64.6219   93.0932   12.0894 O.3     1  UNL1       -0.4683
     17 C          65.3717   93.1753   10.7928 C.3     1  UNL1        0.2469
     18 O          67.3565   94.7978   10.3716 O.co2   1  UNL1       -0.5454
     19 C          66.8458   93.4526   10.7952 C.2     1  UNL1        0.0940
     20 O          67.8092   92.3847   11.2212 O.co2   1  UNL1       -0.5454
     21 N          62.6357   85.2531   11.7296 N.pl3   1  UNL1       -0.3339
     22 H          62.8193   84.2926   11.6158 H       1  UNL1        0.1468
     23 C          61.7881   85.9786   10.7271 C.3     1  UNL1        0.0719
     24 C          60.8799   87.0858   11.1739 C.3     1  UNL1        0.0386
     25 C          60.0323   87.8113   10.1714 C.3     1  UNL1        0.0971
     26 N          60.0927   87.4297    8.7220 N.3     1  UNL1       -0.1590
     27 C          61.0008   86.3226    8.2751 C.3     1  UNL1        0.0971
     28 C          61.8485   85.5970    9.2777 C.3     1  UNL1        0.0386
     29 S          59.2451   88.1553    7.7195 S.O2    1  UNL1        0.0481
     30 O          58.9039   86.8502    7.0635 O.2     1  UNL1       -0.1570
     31 O          59.5862   89.4604    8.3755 O.2     1  UNL1       -0.1570
     32 C          58.3974   88.8808    6.7170 C.3     1  UNL1        0.1954
     33 C          58.9874   89.9920    5.9001 C.ar    1  UNL1        0.0029
     34 C          60.4568   90.0032    5.5995 C.ar    1  UNL1       -0.0025
     35 C          61.0468   91.1144    4.7826 C.ar    1  UNL1       -0.0003
     36 C          60.1673   92.2143    4.2664 C.ar    1  UNL1       -0.0000
     37 C          58.6978   92.2031    4.5670 C.ar    1  UNL1       -0.0003
     38 C          58.1078   91.0919    5.3839 C.ar    1  UNL1       -0.0025
@<TRIPOS>UNITY_ATOM_ATTR
14 1
charge -1
18 1
charge -1
@<TRIPOS>BOND
     1    18    19   ar
     2    19    20   ar
     3    19    17    1
     4    17    16    1
     5    16     7    1
     6     7     8   ar
     7     8    13    1
     8    13    14   ar
     9    13    15   ar
    10     8     9   ar
    11     9    10   ar
    12    10     1    1
    13     1     2   ar
    14     2     3   ar
    15     3     4   ar
    16     4     5   ar
    17     5    21    1
    18    21    23    1
    19    23    24    1
    20    24    25    1
    21    25    26    1
    22    26    29    1
    23    29    30    2
    24    29    31    2
    25    29    32    1
    26    32    33    1
    27    33    34   ar
    28    34    35   ar
    29    35    36   ar
    30    36    37   ar
    31    37    38   ar
    32    26    27    1
    33    27    28    1
    34     5     6   ar
    35    10    11   ar
    36    11    12    1
    37    11     7   ar
    38     6     1   ar
    39    28    23    1
    40    38    33   ar
    41    21    22    1
@<TRIPOS>MOLECULE
*****
 38 41 0 0 0
SMALL
GASTEIGER

@<TRIPOS>ATOM
      1 C          61.5817   86.4069    9.7628 C.ar    1  UNL1        0.0078
      2 C          60.5380   86.0628    8.7418 C.ar    1  UNL1        0.0006
      3 C          59.8304   87.1547    7.9955 C.ar    1  UNL1        0.0013
      4 C          60.1663   88.5905    8.2701 C.ar    1  UNL1        0.0143
      5 C          61.2099   88.9345    9.2911 C.ar    1  UNL1        0.0446
      6 C          61.9176   87.8427   10.0374 C.ar    1  UNL1        0.0148
      7 C          63.4359   84.0818   12.2571 C.ar    1  UNL1        0.1527
      8 C          63.3211   83.1878   11.0581 C.ar    1  UNL1        0.0779
      9 S          62.6126   83.9500    9.9778 S.2     1  UNL1       -0.0821
     10 C          62.2894   85.3150   10.5091 C.ar    1  UNL1        0.0388
     11 C          62.7982   85.3965   11.9178 C.ar    1  UNL1        0.0750
     12 BR         62.6887   86.5840   12.8276 Br      1  UNL1       -0.0453
     13 C          63.8262   81.7790   10.9571 C.2     1  UNL1        0.0818
     14 O          63.1186   80.7896   10.0794 O.co2   1  UNL1       -0.5440
     15 O          65.0390   81.3597   11.7338 O.co2   1  UNL1       -0.5440
     16 O          64.0759   83.7240   13.5657 O.3     1  UNL1       -0.4683
     17 C          63.2978   82.9629   14.5978 C.3     1  UNL1        0.2469
     18 O          63.5481   80.3842   14.4041 O.co2   1  UNL1       -0.5454
     19 C          62.7145   81.6229   14.2600 C.2     1  UNL1        0.0940
     20 O          61.2977   81.5215   13.7781 O.co2   1  UNL1       -0.5454
     21 N          61.5459   90.3704    9.5658 N.pl3   1  UNL1       -0.3339
     22 H          61.2058   91.0779    8.9715 H       1  UNL1        0.1468
     23 C          62.3999   90.7284   10.7458 C.3     1  UNL1        0.0719
     24 C          62.0310   90.2386   12.1148 C.3     1  UNL1        0.0386
     25 C          62.8851   90.5965   13.2948 C.3     1  UNL1        0.0971
     26 N          64.1080   91.4443   13.1058 N.3     1  UNL1       -0.1590
     27 C          64.4769   91.9341   11.7369 C.3     1  UNL1        0.0971
     28 C          63.6229   91.5762   10.5568 C.3     1  UNL1        0.0386
     29 S          64.9620   91.8023   14.2859 S.O2    1  UNL1        0.0481
     30 O          65.3862   93.0648   13.5960 O.2     1  UNL1       -0.1570
     31 O          64.5379   90.5398   14.9759 O.2     1  UNL1       -0.1570
     32 C          65.8161   92.1603   15.4659 C.3     1  UNL1        0.1954
     33 C          67.2714   92.4678   15.2727 C.ar    1  UNL1        0.0029
     34 C          67.9437   93.4899   16.1406 C.ar    1  UNL1       -0.0025
     35 C          69.3991   93.7974   15.9474 C.ar    1  UNL1       -0.0003
     36 C          70.1822   93.0827   14.8863 C.ar    1  UNL1       -0.0000
     37 C          69.5099   92.0606   14.0185 C.ar    1  UNL1       -0.0003
     38 C          68.0546   91.7531   14.2117 C.ar    1  UNL1       -0.0025
@<TRIPOS>UNITY_ATOM_ATTR
14 1
charge -1
18 1
charge -1
@<TRIPOS>BOND
     1    18    19   ar
     2    19    20   ar
     3    19    17    1
     4    17    16    1
     5    16     7    1
     6     7     8   ar
     7     8    13    1
     8    13    14   ar
     9    13    15   ar
    10     8     9   ar
    11     9    10   ar
    12    10     1    1
    13     1     2   ar
    14     2     3   ar
    15     3     4   ar
    16     4     5   ar
    17     5    21    1
    18    21    23    1
    19    23    24    1
    20    24    25    1
    21    25    26    1
    22    26    29    1
    23    29    30    2
    24    29    31    2
    25    29    32    1
    26    32    33    1
    27    33    34   ar
    28    34    35   ar
    29    35    36   ar
    30    36    37   ar
    31    37    38   ar
    32    26    27    1
    33    27    28    1
    34     5     6   ar
    35    10    11   ar
    36    11    12    1
    37    11     7   ar
    38     6     1   ar
    39    28    23    1
    40    38    33   ar
    41    21    22    1
