@<TRIPOS>MOLECULE
*****
 39 43 0 0 0
SMALL
GASTEIGER

@<TRIPOS>ATOM
      1 C          63.8639   89.1484   14.7521 C.ar    1  UNL1        0.1334
      2 C          63.7281   88.7066   13.3251 C.ar    1  UNL1        0.0488
      3 C          63.4973   87.2590   13.0069 C.ar    1  UNL1        0.0509
      4 C          63.4022   86.2533   14.1156 C.ar    1  UNL1        0.0562
      5 C          63.5380   86.6951   15.5426 C.ar    1  UNL1        0.1035
      6 N          63.7689   88.1427   15.8608 N.ar    1  UNL1       -0.2289
      7 C          63.1714   84.8057   13.7974 C.ar    1  UNL1        0.1134
      8 N          63.6023   84.0982   12.5469 N.ar    1  UNL1       -0.2382
      9 C          63.1663   82.6667   12.6505 C.ar    1  UNL1        0.0879
     10 C          63.3165   81.5018   11.7176 C.ar    1  UNL1        0.0196
     11 C          62.7664   80.1596   12.0993 C.ar    1  UNL1        0.0016
     12 C          62.0661   79.9823   13.4139 C.ar    1  UNL1        0.0006
     13 C          61.9158   81.1472   14.3467 C.ar    1  UNL1        0.0080
     14 C          62.4659   82.4894   13.9650 C.ar    1  UNL1        0.0485
     15 S          62.4691   83.8114   14.6739 S.2     1  UNL1       -0.0664
     16 N          64.0948   90.5960   15.0703 N.pl3   1  UNL1       -0.2978
     17 H          63.5390   91.0459   15.7470 H       1  UNL1        0.1536
     18 C          65.8140   93.0540   10.8273 C.3     1  UNL1        0.0521
     19 C          66.0320   92.5870   12.2361 C.ar    1  UNL1        0.0602
     20 C          64.9544   91.8250   12.9488 C.ar    1  UNL1        0.0294
     21 C          65.1724   91.3580   14.3575 C.ar    1  UNL1        0.0517
     22 C          66.4681   91.6530   15.0534 C.ar    1  UNL1        0.0294
     23 C          67.5457   92.4150   14.3406 C.ar    1  UNL1        0.0602
     24 C          68.8413   92.7100   15.0365 C.3     1  UNL1        0.0521
     25 N          67.3277   92.8820   12.9320 N.ar    1  UNL1       -0.2539
     26 N          63.3615   86.8172   11.5798 N.pl3   1  UNL1       -0.3318
     27 H          64.0199   86.1966   11.1919 H       1  UNL1        0.1468
     28 C          62.2225   87.3210   10.7439 C.3     1  UNL1        0.0988
     29 C          61.0913   86.4958   10.2058 C.3     1  UNL1        0.0270
     30 C          60.1844   87.4033    9.4286 C.3     1  UNL1        0.0604
     31 C          60.7550   88.7893    9.4864 C.3     1  UNL1        0.1412
     32 O          60.1690   90.0116    8.8440 O.3     1  UNL1       -0.3818
     33 C          62.0146   88.7385   10.2992 C.3     1  UNL1        0.1549
     34 O          62.9093   89.9009   10.6125 O.3     1  UNL1       -0.3803
     35 H          59.3530   89.7719    8.3775 H       1  UNL1        0.2104
     36 H          62.5492   90.7048   10.2061 H       1  UNL1        0.2105
     37 C          58.9274   86.9962    8.7184 C.3     1  UNL1        0.1396
     38 O          58.5068   87.7114    7.4688 O.3     1  UNL1       -0.3819
     39 H          58.2821   88.6305    7.6825 H       1  UNL1        0.2104
@<TRIPOS>BOND
     1    18    19    1
     2    19    20   ar
     3    20    21   ar
     4    21    16    1
     5    16     1    1
     6     1     2   ar
     7     2     3   ar
     8     3    26    1
     9    28    26    1
    10    28    29    1
    11    29    30    1
    12    30    37    1
    13    37    38    1
    14    30    31    1
    15    31    32    1
    16    31    33    1
    17    33    34    1
    18     3     4   ar
    19     4     7    1
    20     7     8   ar
    21     8     9   ar
    22     9    10   ar
    23    10    11   ar
    24    11    12   ar
    25    12    13   ar
    26    13    14   ar
    27    14    15   ar
    28     4     5   ar
    29     5     6   ar
    30    21    22   ar
    31    22    23   ar
    32    23    24    1
    33    23    25   ar
    34    25    19   ar
    35     6     1   ar
    36    33    28    1
    37    15     7   ar
    38    14     9   ar
    39    16    17    1
    40    26    27    1
    41    38    39    1
    42    32    35    1
    43    34    36    1
@<TRIPOS>MOLECULE
*****
 39 43 0 0 0
SMALL
GASTEIGER

@<TRIPOS>ATOM
      1 C          63.8763   89.1272   14.7831 C.ar    1  UNL1        0.1334
      2 C          63.7386   88.6918   13.3543 C.ar    1  UNL1        0.0488
      3 C          63.5020   87.2465   13.0301 C.ar    1  UNL1        0.0509
      4 C          63.4030   86.2366   14.1347 C.ar    1  UNL1        0.0562
      5 C          63.5406   86.6719   15.5635 C.ar    1  UNL1        0.1035
      6 N          63.7773   88.1172   15.8876 N.ar    1  UNL1       -0.2289
      7 C          63.1663   84.7913   13.8105 C.ar    1  UNL1        0.1134
      8 N          63.6038   84.0847   12.5618 N.ar    1  UNL1       -0.2382
      9 C          63.1585   82.6555   12.6576 C.ar    1  UNL1        0.0879
     10 C          63.3099   81.4922   11.7229 C.ar    1  UNL1        0.0196
     11 C          62.7487   80.1522   12.0962 C.ar    1  UNL1        0.0016
     12 C          62.0360   79.9755   13.4042 C.ar    1  UNL1        0.0006
     13 C          61.8846   81.1388   14.3389 C.ar    1  UNL1        0.0080
     14 C          62.4459   82.4788   13.9657 C.ar    1  UNL1        0.0485
     15 S          62.4507   83.7988   14.6781 S.2     1  UNL1       -0.0664
     16 N          64.1129   90.5725   15.1072 N.pl3   1  UNL1       -0.2978
     17 H          63.5588   91.0219   15.7856 H       1  UNL1        0.1536
     18 C          68.8678   92.6679   15.0833 C.3     1  UNL1        0.0521
     19 C          67.5712   92.3807   14.3858 C.ar    1  UNL1        0.0602
     20 C          66.4903   91.6202   15.0953 C.ar    1  UNL1        0.0294
     21 C          65.1937   91.3330   14.3978 C.ar    1  UNL1        0.0517
     22 C          64.9780   91.8064   12.9909 C.ar    1  UNL1        0.0294
     23 C          66.0589   92.5670   12.2815 C.ar    1  UNL1        0.0602
     24 C          65.8432   93.0404   10.8746 C.3     1  UNL1        0.0521
     25 N          67.3555   92.8541   12.9789 N.ar    1  UNL1       -0.2539
     26 N          63.3643   86.8112   11.6012 N.pl3   1  UNL1       -0.3318
     27 H          64.0204   86.1898   11.2105 H       1  UNL1        0.1468
     28 C          62.2269   87.3225   10.7677 C.3     1  UNL1        0.0988
     29 C          61.1007   86.5009   10.2139 C.3     1  UNL1        0.0270
     30 C          60.1938   87.4158    9.4455 C.3     1  UNL1        0.0604
     31 C          60.7595   88.8029    9.5243 C.3     1  UNL1        0.1412
     32 O          60.1719   90.0318    8.8963 O.3     1  UNL1       -0.3818
     33 C          62.0160   88.7451   10.3415 C.3     1  UNL1        0.1549
     34 O          62.9056   89.9062   10.6740 O.3     1  UNL1       -0.3803
     35 H          59.3586   89.7958    8.4233 H       1  UNL1        0.2104
     36 H          62.5444   90.7143   10.2772 H       1  UNL1        0.2105
     37 C          58.9411   87.0142    8.7247 C.3     1  UNL1        0.1396
     38 O          58.5258   87.7415    7.4803 O.3     1  UNL1       -0.3819
     39 H          58.2987   88.6581    7.7021 H       1  UNL1        0.2104
@<TRIPOS>BOND
     1    18    19    1
     2    19    20   ar
     3    20    21   ar
     4    21    16    1
     5    16     1    1
     6     1     2   ar
     7     2     3   ar
     8     3    26    1
     9    28    26    1
    10    28    29    1
    11    29    30    1
    12    30    37    1
    13    37    38    1
    14    30    31    1
    15    31    32    1
    16    31    33    1
    17    33    34    1
    18     3     4   ar
    19     4     7    1
    20     7     8   ar
    21     8     9   ar
    22     9    10   ar
    23    10    11   ar
    24    11    12   ar
    25    12    13   ar
    26    13    14   ar
    27    14    15   ar
    28     4     5   ar
    29     5     6   ar
    30    21    22   ar
    31    22    23   ar
    32    23    24    1
    33    23    25   ar
    34    25    19   ar
    35     6     1   ar
    36    33    28    1
    37    15     7   ar
    38    14     9   ar
    39    16    17    1
    40    26    27    1
    41    38    39    1
    42    32    35    1
    43    34    36    1
@<TRIPOS>MOLECULE
*****
 39 43 0 0 0
SMALL
GASTEIGER

@<TRIPOS>ATOM
      1 C          62.5583   90.8252   10.8602 C.ar    1  UNL1        0.1334
      2 C          62.5701   90.3872   12.2947 C.ar    1  UNL1        0.0488
      3 C          63.6879   90.8132   13.1998 C.ar    1  UNL1        0.0509
      4 C          64.7937   91.6773   12.6704 C.ar    1  UNL1        0.0562
      5 C          64.7819   92.1154   11.2359 C.ar    1  UNL1        0.1035
      6 N          63.6642   91.6893   10.3307 N.ar    1  UNL1       -0.2289
      7 C          65.9114   92.1033   13.5755 C.ar    1  UNL1        0.1134
      8 N          66.7334   91.2004   14.4467 N.ar    1  UNL1       -0.2382
      9 C          67.7334   92.0461   15.1780 C.ar    1  UNL1        0.0879
     10 C          68.8033   91.7022   16.1714 C.ar    1  UNL1        0.0196
     11 C          69.6693   92.7840   16.7456 C.ar    1  UNL1        0.0016
     12 C          69.4654   94.2097   16.3263 C.ar    1  UNL1        0.0006
     13 C          68.3955   94.5536   15.3329 C.ar    1  UNL1        0.0080
     14 C          67.5295   93.4718   14.7587 C.ar    1  UNL1        0.0485
     15 S          66.4035   93.5072   13.7683 S.2     1  UNL1       -0.0664
     16 N          61.4406   90.3992    9.9551 N.pl3   1  UNL1       -0.2978
     17 H          60.8731   91.0767    9.5212 H       1  UNL1        0.1536
     18 C          62.5166   85.4156   10.9583 C.3     1  UNL1        0.0521
     19 C          61.7256   86.4492   10.2125 C.ar    1  UNL1        0.0602
     20 C          61.9786   87.9074   10.4567 C.ar    1  UNL1        0.0294
     21 C          61.1876   88.9410    9.7109 C.ar    1  UNL1        0.0517
     22 C          60.1436   88.5164    8.7211 C.ar    1  UNL1        0.0294
     23 C          59.8906   87.0581    8.4771 C.ar    1  UNL1        0.0602
     24 C          58.8465   86.6335    7.4873 C.3     1  UNL1        0.0521
     25 N          60.6815   86.0246    9.2227 N.ar    1  UNL1       -0.2539
     26 N          63.6996   90.3751   14.6344 N.pl3   1  UNL1       -0.3318
     27 H          63.6499   91.0451   15.3541 H       1  UNL1        0.1468
     28 C          63.7872   88.9164   14.9724 C.3     1  UNL1        0.0988
     29 C          64.2278   87.8217   14.0464 C.3     1  UNL1        0.0270
     30 C          64.1625   86.5249   14.7975 C.3     1  UNL1        0.0604
     31 C          63.6816   86.8182   16.1877 C.3     1  UNL1        0.1412
     32 O          63.4698   85.8103   17.2783 O.3     1  UNL1       -0.3818
     33 C          63.4497   88.2962   16.2958 C.3     1  UNL1        0.1549
     34 O          62.9652   89.0258   17.5136 O.3     1  UNL1       -0.3803
     35 H          63.6927   84.9257   16.9488 H       1  UNL1        0.2104
     36 H          62.8210   88.3925   18.2340 H       1  UNL1        0.2105
     37 C          64.5160   85.1724   14.2537 C.3     1  UNL1        0.1396
     38 O          64.6260   83.9972   15.1794 O.3     1  UNL1       -0.3819
     39 H          65.3736   84.1299   15.7831 H       1  UNL1        0.2104
@<TRIPOS>BOND
     1    18    19    1
     2    19    20   ar
     3    20    21   ar
     4    21    16    1
     5    16     1    1
     6     1     2   ar
     7     2     3   ar
     8     3    26    1
     9    28    26    1
    10    28    29    1
    11    29    30    1
    12    30    37    1
    13    37    38    1
    14    30    31    1
    15    31    32    1
    16    31    33    1
    17    33    34    1
    18     3     4   ar
    19     4     7    1
    20     7     8   ar
    21     8     9   ar
    22     9    10   ar
    23    10    11   ar
    24    11    12   ar
    25    12    13   ar
    26    13    14   ar
    27    14    15   ar
    28     4     5   ar
    29     5     6   ar
    30    21    22   ar
    31    22    23   ar
    32    23    24    1
    33    23    25   ar
    34    25    19   ar
    35     6     1   ar
    36    33    28    1
    37    15     7   ar
    38    14     9   ar
    39    16    17    1
    40    26    27    1
    41    38    39    1
    42    32    35    1
    43    34    36    1
@<TRIPOS>MOLECULE
*****
 39 43 0 0 0
SMALL
GASTEIGER

@<TRIPOS>ATOM
      1 C          62.5703   90.8205   10.8699 C.ar    1  UNL1        0.1334
      2 C          62.5841   90.3788   12.3033 C.ar    1  UNL1        0.0488
      3 C          63.6990   90.8089   13.2099 C.ar    1  UNL1        0.0509
      4 C          64.8001   91.6807   12.6831 C.ar    1  UNL1        0.0562
      5 C          64.7862   92.1224   11.2497 C.ar    1  UNL1        0.1035
      6 N          63.6713   91.6923   10.3431 N.ar    1  UNL1       -0.2289
      7 C          65.9150   92.1109   13.5897 C.ar    1  UNL1        0.1134
      8 N          66.7312   91.2125   14.4710 N.ar    1  UNL1       -0.2382
      9 C          67.7301   92.0613   15.2002 C.ar    1  UNL1        0.0879
     10 C          68.7951   91.7222   16.2006 C.ar    1  UNL1        0.0196
     11 C          69.6612   92.8062   16.7705 C.ar    1  UNL1        0.0016
     12 C          69.4623   94.2293   16.3399 C.ar    1  UNL1        0.0006
     13 C          68.3974   94.5683   15.3394 C.ar    1  UNL1        0.0080
     14 C          67.5313   93.4843   14.7696 C.ar    1  UNL1        0.0485
     15 S          66.4095   93.5149   13.7743 S.2     1  UNL1       -0.0664
     16 N          61.4553   90.3904    9.9633 N.pl3   1  UNL1       -0.2978
     17 H          60.8946   91.0660    9.5179 H       1  UNL1        0.1536
     18 C          58.9003   86.6101    7.4769 C.3     1  UNL1        0.0521
     19 C          59.9173   87.0408    8.4920 C.ar    1  UNL1        0.0602
     20 C          60.1778   88.5002    8.7201 C.ar    1  UNL1        0.0294
     21 C          61.1948   88.9309    9.7352 C.ar    1  UNL1        0.0517
     22 C          61.9513   87.9021   10.5221 C.ar    1  UNL1        0.0294
     23 C          61.6907   86.4425   10.2940 C.ar    1  UNL1        0.0602
     24 C          62.4472   85.4137   11.0809 C.3     1  UNL1        0.0521
     25 N          60.6738   86.0119    9.2789 N.ar    1  UNL1       -0.2539
     26 N          63.7129   90.3672   14.6434 N.pl3   1  UNL1       -0.3318
     27 H          63.6642   91.0353   15.3648 H       1  UNL1        0.1468
     28 C          63.8008   88.9076   14.9775 C.3     1  UNL1        0.0988
     29 C          64.2462   87.8160   14.0501 C.3     1  UNL1        0.0270
     30 C          64.1794   86.5170   14.7972 C.3     1  UNL1        0.0604
     31 C          63.6927   86.8057   16.1864 C.3     1  UNL1        0.1412
     32 O          63.4778   85.7945   17.2733 O.3     1  UNL1       -0.3818
     33 C          63.4587   88.2831   16.2978 C.3     1  UNL1        0.1549
     34 O          62.9687   89.0088   17.5158 O.3     1  UNL1       -0.3803
     35 H          63.7031   84.9111   16.9421 H       1  UNL1        0.2104
     36 H          62.8224   88.3732   18.2338 H       1  UNL1        0.2105
     37 C          64.5366   85.1664   14.2510 C.3     1  UNL1        0.1396
     38 O          64.6185   83.9835   15.1697 O.3     1  UNL1       -0.3819
     39 H          65.3532   84.1069   15.7909 H       1  UNL1        0.2104
@<TRIPOS>BOND
     1    18    19    1
     2    19    20   ar
     3    20    21   ar
     4    21    16    1
     5    16     1    1
     6     1     2   ar
     7     2     3   ar
     8     3    26    1
     9    28    26    1
    10    28    29    1
    11    29    30    1
    12    30    37    1
    13    37    38    1
    14    30    31    1
    15    31    32    1
    16    31    33    1
    17    33    34    1
    18     3     4   ar
    19     4     7    1
    20     7     8   ar
    21     8     9   ar
    22     9    10   ar
    23    10    11   ar
    24    11    12   ar
    25    12    13   ar
    26    13    14   ar
    27    14    15   ar
    28     4     5   ar
    29     5     6   ar
    30    21    22   ar
    31    22    23   ar
    32    23    24    1
    33    23    25   ar
    34    25    19   ar
    35     6     1   ar
    36    33    28    1
    37    15     7   ar
    38    14     9   ar
    39    16    17    1
    40    26    27    1
    41    38    39    1
    42    32    35    1
    43    34    36    1
@<TRIPOS>MOLECULE
*****
 39 43 0 0 0
SMALL
GASTEIGER

@<TRIPOS>ATOM
      1 C          63.1303   86.2198   14.1931 C.ar    1  UNL1        0.1334
      2 C          62.7084   86.8082   12.8795 C.ar    1  UNL1        0.0488
      3 C          63.1837   88.1744   12.4824 C.ar    1  UNL1        0.0509
      4 C          64.0809   88.9521   13.3990 C.ar    1  UNL1        0.0562
      5 C          64.5027   88.3636   14.7126 C.ar    1  UNL1        0.1035
      6 N          64.0274   86.9975   15.1097 N.ar    1  UNL1       -0.2289
      7 C          64.5562   90.3182   13.0019 C.ar    1  UNL1        0.1134
      8 N          64.3465   90.9716   11.6681 N.ar    1  UNL1       -0.2382
      9 C          64.9854   92.3281   11.7107 C.ar    1  UNL1        0.0879
     10 C          65.0947   93.4187   10.6868 C.ar    1  UNL1        0.0196
     11 C          65.8086   94.6943   11.0230 C.ar    1  UNL1        0.0016
     12 C          66.4133   94.8793   12.3832 C.ar    1  UNL1        0.0006
     13 C          66.3039   93.7887   13.4072 C.ar    1  UNL1        0.0080
     14 C          65.5900   92.5131   13.0710 C.ar    1  UNL1        0.0485
     15 S          65.3248   91.2709   13.8689 S.2     1  UNL1       -0.0664
     16 N          62.6549   84.8536   14.5902 N.pl3   1  UNL1       -0.2978
     17 H          62.2446   84.7128   15.4740 H       1  UNL1        0.1536
     18 C          62.0452   79.8091   13.5029 C.3     1  UNL1        0.0521
     19 C          62.4999   81.1798   13.0972 C.ar    1  UNL1        0.0602
     20 C          62.3501   82.3314   14.0466 C.ar    1  UNL1        0.0294
     21 C          62.8048   83.7020   13.6408 C.ar    1  UNL1        0.0517
     22 C          63.4093   83.9211   12.2856 C.ar    1  UNL1        0.0294
     23 C          63.5592   82.7694   11.3362 C.ar    1  UNL1        0.0602
     24 C          64.1637   82.9884    9.9810 C.3     1  UNL1        0.0521
     25 N          63.1045   81.3988   11.7420 N.ar    1  UNL1       -0.2539
     26 N          62.7618   88.7628   11.1686 N.pl3   1  UNL1       -0.3318
     27 H          63.0019   89.6910   10.9453 H       1  UNL1        0.1468
     28 C          61.9741   87.9369   10.1953 C.3     1  UNL1        0.0988
     29 C          62.5323   86.9055    9.2600 C.3     1  UNL1        0.0270
     30 C          61.3931   86.3286    8.4731 C.3     1  UNL1        0.0604
     31 C          60.1309   87.0033    8.9220 C.3     1  UNL1        0.1412
     32 O          58.7517   86.7317    8.3984 O.3     1  UNL1       -0.3818
     33 C          60.4900   87.9973    9.9864 C.3     1  UNL1        0.1549
     34 O          59.5329   88.8942   10.7141 O.3     1  UNL1       -0.3803
     35 H          58.7947   86.0444    7.7153 H       1  UNL1        0.2104
     36 H          58.6321   88.7358   10.3911 H       1  UNL1        0.2105
     37 C          61.4978   85.2637    7.4217 C.3     1  UNL1        0.1396
     38 O          60.2759   84.8337    6.6655 O.3     1  UNL1       -0.3819
     39 H          59.6552   84.4016    7.2729 H       1  UNL1        0.2104
@<TRIPOS>BOND
     1    18    19    1
     2    19    20   ar
     3    20    21   ar
     4    21    16    1
     5    16     1    1
     6     1     2   ar
     7     2     3   ar
     8     3    26    1
     9    28    26    1
    10    28    29    1
    11    29    30    1
    12    30    37    1
    13    37    38    1
    14    30    31    1
    15    31    32    1
    16    31    33    1
    17    33    34    1
    18     3     4   ar
    19     4     7    1
    20     7     8   ar
    21     8     9   ar
    22     9    10   ar
    23    10    11   ar
    24    11    12   ar
    25    12    13   ar
    26    13    14   ar
    27    14    15   ar
    28     4     5   ar
    29     5     6   ar
    30    21    22   ar
    31    22    23   ar
    32    23    24    1
    33    23    25   ar
    34    25    19   ar
    35     6     1   ar
    36    33    28    1
    37    15     7   ar
    38    14     9   ar
    39    16    17    1
    40    26    27    1
    41    38    39    1
    42    32    35    1
    43    34    36    1
@<TRIPOS>MOLECULE
*****
 39 43 0 0 0
SMALL
GASTEIGER

@<TRIPOS>ATOM
      1 C          63.1349   86.2269   14.1882 C.ar    1  UNL1        0.1334
      2 C          62.7171   86.8126   12.8721 C.ar    1  UNL1        0.0488
      3 C          63.1915   88.1790   12.4748 C.ar    1  UNL1        0.0509
      4 C          64.0838   88.9597   13.3936 C.ar    1  UNL1        0.0562
      5 C          64.5016   88.3740   14.7097 C.ar    1  UNL1        0.1035
      6 N          64.0272   87.0076   15.1071 N.ar    1  UNL1       -0.2289
      7 C          64.5582   90.3261   12.9963 C.ar    1  UNL1        0.1134
      8 N          64.3374   90.9840   11.6665 N.ar    1  UNL1       -0.2382
      9 C          64.9795   92.3390   11.7073 C.ar    1  UNL1        0.0879
     10 C          65.0815   93.4326   10.6857 C.ar    1  UNL1        0.0196
     11 C          65.8013   94.7056   11.0191 C.ar    1  UNL1        0.0016
     12 C          66.4190   94.8852   12.3742 C.ar    1  UNL1        0.0006
     13 C          66.3169   93.7917   13.3958 C.ar    1  UNL1        0.0080
     14 C          65.5972   92.5186   13.0624 C.ar    1  UNL1        0.0485
     15 S          65.3369   91.2745   13.8590 S.2     1  UNL1       -0.0664
     16 N          62.6605   84.8605   14.5856 N.pl3   1  UNL1       -0.2978
     17 H          62.2463   84.7205   15.4677 H       1  UNL1        0.1536
     18 C          64.1966   82.9898    9.9876 C.3     1  UNL1        0.0521
     19 C          63.5851   82.7722   11.3400 C.ar    1  UNL1        0.0602
     20 C          63.4285   83.9252   12.2866 C.ar    1  UNL1        0.0294
     21 C          62.8170   83.7076   13.6389 C.ar    1  UNL1        0.0517
     22 C          62.3619   82.3370   14.0445 C.ar    1  UNL1        0.0294
     23 C          62.5185   81.1840   13.0978 C.ar    1  UNL1        0.0602
     24 C          62.0635   79.8135   13.5034 C.3     1  UNL1        0.0521
     25 N          63.1300   81.4017   11.7456 N.ar    1  UNL1       -0.2539
     26 N          62.7736   88.7647   11.1585 N.pl3   1  UNL1       -0.3318
     27 H          63.0178   89.6913   10.9323 H       1  UNL1        0.1468
     28 C          61.9838   87.9387   10.1870 C.3     1  UNL1        0.0988
     29 C          62.5404   86.9099    9.2480 C.3     1  UNL1        0.0270
     30 C          61.3993   86.3319    8.4646 C.3     1  UNL1        0.0604
     31 C          60.1375   87.0035    8.9193 C.3     1  UNL1        0.1412
     32 O          58.7569   86.7300    8.4007 O.3     1  UNL1       -0.3818
     33 C          60.4987   87.9966    9.9839 C.3     1  UNL1        0.1549
     34 O          59.5428   88.8905   10.7166 O.3     1  UNL1       -0.3803
     35 H          58.7986   86.0437    7.7164 H       1  UNL1        0.2104
     36 H          58.6410   88.7308   10.3969 H       1  UNL1        0.2105
     37 C          61.5020   85.2688    7.4112 C.3     1  UNL1        0.1396
     38 O          60.2796   84.8438    6.6530 O.3     1  UNL1       -0.3819
     39 H          59.6571   84.4122    7.2589 H       1  UNL1        0.2104
@<TRIPOS>BOND
     1    18    19    1
     2    19    20   ar
     3    20    21   ar
     4    21    16    1
     5    16     1    1
     6     1     2   ar
     7     2     3   ar
     8     3    26    1
     9    28    26    1
    10    28    29    1
    11    29    30    1
    12    30    37    1
    13    37    38    1
    14    30    31    1
    15    31    32    1
    16    31    33    1
    17    33    34    1
    18     3     4   ar
    19     4     7    1
    20     7     8   ar
    21     8     9   ar
    22     9    10   ar
    23    10    11   ar
    24    11    12   ar
    25    12    13   ar
    26    13    14   ar
    27    14    15   ar
    28     4     5   ar
    29     5     6   ar
    30    21    22   ar
    31    22    23   ar
    32    23    24    1
    33    23    25   ar
    34    25    19   ar
    35     6     1   ar
    36    33    28    1
    37    15     7   ar
    38    14     9   ar
    39    16    17    1
    40    26    27    1
    41    38    39    1
    42    32    35    1
    43    34    36    1
@<TRIPOS>MOLECULE
*****
 39 43 0 0 0
SMALL
GASTEIGER

@<TRIPOS>ATOM
      1 C          63.2654   89.6502   12.8340 C.ar    1  UNL1        0.1334
      2 C          62.1232   88.9792   12.1303 C.ar    1  UNL1        0.0488
      3 C          62.0005   87.4845   12.1558 C.ar    1  UNL1        0.0509
      4 C          63.0200   86.6607   12.8851 C.ar    1  UNL1        0.0562
      5 C          64.1622   87.3316   13.5889 C.ar    1  UNL1        0.1035
      6 N          64.2848   88.8263   13.5633 N.ar    1  UNL1       -0.2289
      7 C          62.8973   85.1659   12.9107 C.ar    1  UNL1        0.1134
      8 N          63.2310   84.2345   11.7832 N.ar    1  UNL1       -0.2382
      9 C          62.9593   82.8330   12.2439 C.ar    1  UNL1        0.0879
     10 C          63.1038   81.5059   11.5599 C.ar    1  UNL1        0.0196
     11 C          62.7468   80.2441   12.2881 C.ar    1  UNL1        0.0016
     12 C          62.2453   80.3094   13.7003 C.ar    1  UNL1        0.0006
     13 C          62.1008   81.6365   14.3842 C.ar    1  UNL1        0.0080
     14 C          62.4578   82.8983   13.6560 C.ar    1  UNL1        0.0485
     15 S          62.4195   84.3401   14.0681 S.2     1  UNL1       -0.0664
     16 N          63.3881   91.1449   12.8085 N.pl3   1  UNL1       -0.2978
     17 H          62.5857   91.7065   12.9094 H       1  UNL1        0.1536
     18 C          66.8451   93.5844    9.7922 C.3     1  UNL1        0.0521
     19 C          66.4617   93.0038   11.1211 C.ar    1  UNL1        0.0602
     20 C          65.1166   92.3647   11.3003 C.ar    1  UNL1        0.0294
     21 C          64.7331   91.7841   12.6293 C.ar    1  UNL1        0.0517
     22 C          65.6948   91.8427   13.7789 C.ar    1  UNL1        0.0294
     23 C          67.0400   92.4820   13.5997 C.ar    1  UNL1        0.0602
     24 C          68.0017   92.5406   14.7493 C.3     1  UNL1        0.0521
     25 N          67.4234   93.0625   12.2708 N.ar    1  UNL1       -0.2539
     26 N          60.8583   86.8136   11.4520 N.pl3   1  UNL1       -0.3318
     27 H          60.0208   86.6308   11.9362 H       1  UNL1        0.1468
     28 C          60.9921   86.4211   10.0105 C.3     1  UNL1        0.0988
     29 C          62.1543   85.6971    9.3981 C.3     1  UNL1        0.0270
     30 C          61.8677   85.5123    7.9374 C.3     1  UNL1        0.0604
     31 C          60.5283   86.1220    7.6470 C.3     1  UNL1        0.1412
     32 O          59.8493   86.1629    6.3101 O.3     1  UNL1       -0.3818
     33 C          59.9872   86.6837    8.9283 C.3     1  UNL1        0.1549
     34 O          58.6720   87.3849    9.0976 O.3     1  UNL1       -0.3803
     35 H          60.4116   85.7303    5.6486 H       1  UNL1        0.2104
     36 H          58.2138   87.4233    8.2435 H       1  UNL1        0.2105
     37 C          62.7633   84.8363    6.9418 C.3     1  UNL1        0.1396
     38 O          62.2223   84.4245    5.6048 O.3     1  UNL1       -0.3819
     39 H          61.5584   83.7276    5.7253 H       1  UNL1        0.2104
@<TRIPOS>BOND
     1    18    19    1
     2    19    20   ar
     3    20    21   ar
     4    21    16    1
     5    16     1    1
     6     1     2   ar
     7     2     3   ar
     8     3    26    1
     9    28    26    1
    10    28    29    1
    11    29    30    1
    12    30    37    1
    13    37    38    1
    14    30    31    1
    15    31    32    1
    16    31    33    1
    17    33    34    1
    18     3     4   ar
    19     4     7    1
    20     7     8   ar
    21     8     9   ar
    22     9    10   ar
    23    10    11   ar
    24    11    12   ar
    25    12    13   ar
    26    13    14   ar
    27    14    15   ar
    28     4     5   ar
    29     5     6   ar
    30    21    22   ar
    31    22    23   ar
    32    23    24    1
    33    23    25   ar
    34    25    19   ar
    35     6     1   ar
    36    33    28    1
    37    15     7   ar
    38    14     9   ar
    39    16    17    1
    40    26    27    1
    41    38    39    1
    42    32    35    1
    43    34    36    1
@<TRIPOS>MOLECULE
*****
 39 43 0 0 0
SMALL
GASTEIGER

@<TRIPOS>ATOM
      1 C          63.2609   89.4405   12.6513 C.ar    1  UNL1        0.1334
      2 C          62.7041   88.7015   11.4708 C.ar    1  UNL1        0.0488
      3 C          62.6019   87.2053   11.5027 C.ar    1  UNL1        0.0509
      4 C          63.0565   86.4482   12.7151 C.ar    1  UNL1        0.0562
      5 C          63.6133   87.1872   13.8956 C.ar    1  UNL1        0.1035
      6 N          63.7155   88.6834   13.8638 N.ar    1  UNL1       -0.2289
      7 C          62.9543   84.9520   12.7470 C.ar    1  UNL1        0.1134
      8 N          63.1794   84.0279   11.5870 N.ar    1  UNL1       -0.2382
      9 C          62.9733   82.6220   12.0676 C.ar    1  UNL1        0.0879
     10 C          63.0610   81.2988   11.3667 C.ar    1  UNL1        0.0196
     11 C          62.7963   80.0306   12.1228 C.ar    1  UNL1        0.0016
     12 C          62.4437   80.0858   13.5797 C.ar    1  UNL1        0.0006
     13 C          62.3560   81.4090   14.2806 C.ar    1  UNL1        0.0080
     14 C          62.6208   82.6771   13.5245 C.ar    1  UNL1        0.0485
     15 S          62.6090   84.1171   13.9444 S.2     1  UNL1       -0.0664
     16 N          63.3631   90.9367   12.6195 N.pl3   1  UNL1       -0.2978
     17 H          62.5488   91.4870   12.6766 H       1  UNL1        0.1536
     18 C          66.8417   93.5907    9.8165 C.3     1  UNL1        0.0521
     19 C          66.4453   92.9213   11.0991 C.ar    1  UNL1        0.0602
     20 C          65.1024   92.2637   11.2180 C.ar    1  UNL1        0.0294
     21 C          64.7060   91.5943   12.5006 C.ar    1  UNL1        0.0517
     22 C          65.6525   91.5827   13.6642 C.ar    1  UNL1        0.0294
     23 C          66.9954   92.2404   13.5453 C.ar    1  UNL1        0.0602
     24 C          67.9419   92.2288   14.7089 C.3     1  UNL1        0.0521
     25 N          67.3918   92.9097   12.2627 N.ar    1  UNL1       -0.2539
     26 N          62.0450   86.4663   10.3221 N.pl3   1  UNL1       -0.3318
     27 H          62.2563   85.5134   10.1934 H       1  UNL1        0.1468
     28 C          61.1662   87.1791    9.3374 C.3     1  UNL1        0.0988
     29 C          60.8921   88.6535    9.3064 C.3     1  UNL1        0.0270
     30 C          59.9637   88.9284    8.1608 C.3     1  UNL1        0.0604
     31 C          59.6640   87.6238    7.4837 C.3     1  UNL1        0.1412
     32 O          58.7768   87.4337    6.2892 O.3     1  UNL1       -0.3818
     33 C          60.4072   86.5427    8.2110 C.3     1  UNL1        0.1549
     34 O          60.3937   85.0817    7.8714 O.3     1  UNL1       -0.3803
     35 H          58.4185   88.2917    6.0128 H       1  UNL1        0.2104
     36 H          59.8247   84.9344    7.0997 H       1  UNL1        0.2105
     37 C          59.4289   90.2719    7.7621 C.3     1  UNL1        0.1396
     38 O          59.0926   90.5496    6.3269 O.3     1  UNL1       -0.3819
     39 H          59.9042   90.5339    5.7958 H       1  UNL1        0.2104
@<TRIPOS>BOND
     1    18    19    1
     2    19    20   ar
     3    20    21   ar
     4    21    16    1
     5    16     1    1
     6     1     2   ar
     7     2     3   ar
     8     3    26    1
     9    28    26    1
    10    28    29    1
    11    29    30    1
    12    30    37    1
    13    37    38    1
    14    30    31    1
    15    31    32    1
    16    31    33    1
    17    33    34    1
    18     3     4   ar
    19     4     7    1
    20     7     8   ar
    21     8     9   ar
    22     9    10   ar
    23    10    11   ar
    24    11    12   ar
    25    12    13   ar
    26    13    14   ar
    27    14    15   ar
    28     4     5   ar
    29     5     6   ar
    30    21    22   ar
    31    22    23   ar
    32    23    24    1
    33    23    25   ar
    34    25    19   ar
    35     6     1   ar
    36    33    28    1
    37    15     7   ar
    38    14     9   ar
    39    16    17    1
    40    26    27    1
    41    38    39    1
    42    32    35    1
    43    34    36    1
@<TRIPOS>MOLECULE
*****
 39 43 0 0 0
SMALL
GASTEIGER

@<TRIPOS>ATOM
      1 C          62.5415   90.9282   10.8351 C.ar    1  UNL1        0.1334
      2 C          62.3978   90.7655   12.3193 C.ar    1  UNL1        0.0488
      3 C          63.5119   91.1860   13.2313 C.ar    1  UNL1        0.0509
      4 C          64.7699   91.7692   12.6592 C.ar    1  UNL1        0.0562
      5 C          64.9137   91.9319   11.1750 C.ar    1  UNL1        0.1035
      6 N          63.7995   91.5113   10.2630 N.ar    1  UNL1       -0.2289
      7 C          65.8841   92.1897   13.5712 C.ar    1  UNL1        0.1134
      8 N          66.6632   91.2901   14.4842 N.ar    1  UNL1       -0.2382
      9 C          67.6754   92.1281   15.2076 C.ar    1  UNL1        0.0879
     10 C          68.7171   91.7835   16.2304 C.ar    1  UNL1        0.0196
     11 C          69.6052   92.8564   16.7873 C.ar    1  UNL1        0.0016
     12 C          69.4516   94.2739   16.3213 C.ar    1  UNL1        0.0006
     13 C          68.4099   94.6185   15.2985 C.ar    1  UNL1        0.0080
     14 C          67.5219   93.5456   14.7417 C.ar    1  UNL1        0.0485
     15 S          66.4147   93.5836   13.7303 S.2     1  UNL1       -0.0664
     16 N          61.4274   90.5076    9.9231 N.pl3   1  UNL1       -0.2978
     17 H          60.8736   91.1880    9.4763 H       1  UNL1        0.1536
     18 C          58.8237   86.7509    7.4517 C.3     1  UNL1        0.0521
     19 C          59.8550   87.1721    8.4562 C.ar    1  UNL1        0.0602
     20 C          60.1255   88.6293    8.6874 C.ar    1  UNL1        0.0294
     21 C          61.1568   89.0505    9.6919 C.ar    1  UNL1        0.0517
     22 C          61.9176   88.0145   10.4653 C.ar    1  UNL1        0.0294
     23 C          61.6470   86.5573   10.2340 C.ar    1  UNL1        0.0602
     24 C          62.4077   85.5213   11.0074 C.3     1  UNL1        0.0521
     25 N          60.6157   86.1361    9.2295 N.ar    1  UNL1       -0.2539
     26 N          63.3681   91.0233   14.7156 N.pl3   1  UNL1       -0.3318
     27 H          63.2562   91.8156   15.2891 H       1  UNL1        0.1468
     28 C          63.3948   89.6534   15.3260 C.3     1  UNL1        0.0988
     29 C          62.9618   89.2998   16.7179 C.3     1  UNL1        0.0270
     30 C          63.1586   87.8244   16.9038 C.3     1  UNL1        0.0604
     31 C          63.7133   87.2662   15.6268 C.3     1  UNL1        0.1412
     32 O          64.0610   85.8298   15.3701 O.3     1  UNL1       -0.3818
     33 C          63.8593   88.3966   14.6517 C.3     1  UNL1        0.1549
     34 O          64.3786   88.2890   13.2486 O.3     1  UNL1       -0.3803
     35 H          63.8719   85.3046   16.1633 H       1  UNL1        0.2104
     36 H          64.6106   87.3663   13.0595 H       1  UNL1        0.2105
     37 C          62.8541   87.0443   18.1483 C.3     1  UNL1        0.1396
     38 O          62.1476   85.7246   18.0521 O.3     1  UNL1       -0.3819
     39 H          61.2457   85.8639   17.7232 H       1  UNL1        0.2104
@<TRIPOS>BOND
     1    18    19    1
     2    19    20   ar
     3    20    21   ar
     4    21    16    1
     5    16     1    1
     6     1     2   ar
     7     2     3   ar
     8     3    26    1
     9    28    26    1
    10    28    29    1
    11    29    30    1
    12    30    37    1
    13    37    38    1
    14    30    31    1
    15    31    32    1
    16    31    33    1
    17    33    34    1
    18     3     4   ar
    19     4     7    1
    20     7     8   ar
    21     8     9   ar
    22     9    10   ar
    23    10    11   ar
    24    11    12   ar
    25    12    13   ar
    26    13    14   ar
    27    14    15   ar
    28     4     5   ar
    29     5     6   ar
    30    21    22   ar
    31    22    23   ar
    32    23    24    1
    33    23    25   ar
    34    25    19   ar
    35     6     1   ar
    36    33    28    1
    37    15     7   ar
    38    14     9   ar
    39    16    17    1
    40    26    27    1
    41    38    39    1
    42    32    35    1
    43    34    36    1
