@<TRIPOS>MOLECULE
*****
 44 48 0 0 0
SMALL
GASTEIGER

@<TRIPOS>ATOM
      1 C          62.9912   89.1836   12.5210 C.3     1  UNL1        0.1408
      2 C          63.8104   88.5859   13.6263 C.3     1  UNL1        0.1235
      3 N          63.8129   87.0965   13.4481 N.am    1  UNL1       -0.2745
      4 C          64.4540   85.9926   14.2356 C.2     1  UNL1        0.2489
      5 O          65.2717   86.3154   15.4511 O.2     1  UNL1       -0.2699
      6 C          64.2775   84.5658   13.8077 C.2     1  UNL1        0.0534
      7 C          63.4599   84.2430   12.5923 C.2     1  UNL1       -0.0202
      8 C          62.8188   85.3470   11.8048 C.3     1  UNL1        0.0464
      9 C          62.9953   86.7737   12.2327 C.3     1  UNL1        0.0864
     10 C          62.4875   88.0636   11.6597 C.3     1  UNL1        0.0697
     11 C          61.6270   88.2081   10.4396 C.ar    1  UNL1       -0.0183
     12 C          61.6919   87.1795    9.3499 C.ar    1  UNL1       -0.0018
     13 C          60.8314   87.3240    8.1298 C.ar    1  UNL1        0.0293
     14 C          59.9059   88.4971    7.9994 C.ar    1  UNL1        0.1401
     15 F          59.0454   88.6416    6.7793 F       1  UNL1       -0.2042
     16 C          59.8408   89.5258    9.0891 C.ar    1  UNL1        0.0293
     17 C          60.7014   89.3813   10.3092 C.ar    1  UNL1       -0.0018
     18 C          63.2834   82.8162   12.1643 C.2     1  UNL1       -0.0275
     19 C          62.9080   81.7716   13.1732 C.2     1  UNL1       -0.0133
     20 C          62.7315   80.3447   12.7452 C.3     1  UNL1        0.0985
     21 N          62.9305   79.9626   11.3085 N.3     1  UNL1       -0.2712
     22 C          63.3060   81.0072   10.2996 C.3     1  UNL1        0.0770
     23 C          63.4825   82.4340   10.7275 C.3     1  UNL1        0.0431
     24 C          62.7541   78.5358   10.8805 C.3     1  UNL1        0.0458
     25 C          62.9638   78.9387    9.4509 C.3     1  UNL1        0.0160
     26 C          62.5444   78.1329   12.3101 C.3     1  UNL1        0.0160
     27 C          62.5776   77.1091   10.4526 C.3     1  UNL1        0.0160
     28 O          62.7230   90.6448   12.3134 O.3     1  UNL1       -0.3522
     29 C          63.3474   91.3593    9.8948 C.3     1  UNL1        0.0370
     30 C          63.5816   91.4389   11.3743 C.3     1  UNL1        0.1375
     31 C          64.6745   92.3128   11.9146 C.ar    1  UNL1        0.0044
     32 C          65.1459   93.4983   11.1258 C.ar    1  UNL1        0.0019
     33 C          66.2388   94.3722   11.6662 C.ar    1  UNL1        0.0711
     34 C          66.8603   94.0605   12.9953 C.ar    1  UNL1        0.0077
     35 C          66.3889   92.8749   13.7841 C.ar    1  UNL1        0.0711
     36 C          65.2960   92.0011   13.2438 C.ar    1  UNL1        0.0019
     37 C          66.7102   95.5577   10.8774 C.3     1  UNL1        0.4186
     38 F          67.1817   96.7434   10.0886 F       1  UNL1       -0.1659
     39 F          65.8236   96.4523   11.6919 F       1  UNL1       -0.1659
     40 F          67.5969   94.6632   10.0628 F       1  UNL1       -0.1659
     41 C          67.0103   92.5633   15.1133 C.3     1  UNL1        0.4186
     42 F          67.6318   92.2516   16.4424 F       1  UNL1       -0.1659
     43 F          66.5997   91.1279   14.9686 F       1  UNL1       -0.1659
     44 F          67.4209   93.9987   15.2579 F       1  UNL1       -0.1659
@<TRIPOS>BOND
     1    30    29    1
     2    30    28    1
     3     1    28    1
     4     1     2    1
     5     2     3    1
     6     3     4   am
     7     4     5    2
     8     4     6    1
     9     6     7    2
    10     7    18    1
    11    18    19    2
    12    19    20    1
    13    20    21    1
    14    21    24    1
    15    24    25    1
    16    24    26    1
    17    24    27    1
    18    21    22    1
    19    22    23    1
    20     7     8    1
    21     8     9    1
    22     9    10    1
    23    10    11    1
    24    11    12   ar
    25    12    13   ar
    26    13    14   ar
    27    14    15    1
    28    14    16   ar
    29    16    17   ar
    30    30    31    1
    31    31    32   ar
    32    32    33   ar
    33    33    37    1
    34    37    38    1
    35    37    39    1
    36    37    40    1
    37    33    34   ar
    38    34    35   ar
    39    35    41    1
    40    41    42    1
    41    41    43    1
    42    41    44    1
    43    35    36   ar
    44    10     1    1
    45    17    11   ar
    46    36    31   ar
    47     9     3    1
    48    23    18    1
@<TRIPOS>MOLECULE
*****
 44 48 0 0 0
SMALL
GASTEIGER

@<TRIPOS>ATOM
      1 C          62.9904   89.1893   12.5254 C.3     1  UNL1        0.1408
      2 C          63.8073   88.5922   13.6327 C.3     1  UNL1        0.1235
      3 N          63.8124   87.1029   13.4538 N.am    1  UNL1       -0.2745
      4 C          64.4529   85.9995   14.2425 C.2     1  UNL1        0.2489
      5 O          65.2667   86.3228   15.4604 O.2     1  UNL1       -0.2699
      6 C          64.2796   84.5727   13.8134 C.2     1  UNL1        0.0534
      7 C          63.4658   84.2494   12.5955 C.2     1  UNL1       -0.0202
      8 C          62.8253   85.3528   11.8068 C.3     1  UNL1        0.0464
      9 C          62.9986   86.7796   12.2359 C.3     1  UNL1        0.0864
     10 C          62.4906   88.0690   11.6621 C.3     1  UNL1        0.0697
     11 C          61.6333   88.2129   10.4397 C.ar    1  UNL1       -0.0183
     12 C          61.7035   87.1855    9.3492 C.ar    1  UNL1       -0.0018
     13 C          60.8462   87.3294    8.1268 C.ar    1  UNL1        0.0293
     14 C          59.9186   88.5008    7.9949 C.ar    1  UNL1        0.1401
     15 F          59.0613   88.6447    6.7724 F       1  UNL1       -0.2042
     16 C          59.8484   89.5283    9.0854 C.ar    1  UNL1        0.0293
     17 C          60.7057   89.3844   10.3078 C.ar    1  UNL1       -0.0018
     18 C          63.2925   82.8225   12.1664 C.2     1  UNL1       -0.0275
     19 C          62.9325   81.7739   13.1767 C.2     1  UNL1       -0.0133
     20 C          62.7592   80.3470   12.7476 C.3     1  UNL1        0.0985
     21 N          62.9460   79.9688   11.3081 N.3     1  UNL1       -0.2712
     22 C          63.3061   81.0175   10.2978 C.3     1  UNL1        0.0770
     23 C          63.4793   82.4443   10.7269 C.3     1  UNL1        0.0431
     24 C          62.7728   78.5420   10.8790 C.3     1  UNL1        0.0458
     25 C          62.9628   78.9494    9.4480 C.3     1  UNL1        0.0160
     26 C          62.5827   78.1347   12.3100 C.3     1  UNL1        0.0160
     27 C          62.5995   77.1152   10.4498 C.3     1  UNL1        0.0160
     28 O          62.7207   90.6502   12.3177 O.3     1  UNL1       -0.3522
     29 C          63.3456   91.3678    9.9002 C.3     1  UNL1        0.0370
     30 C          63.5795   91.4456   11.3799 C.3     1  UNL1        0.1375
     31 C          64.6723   92.3187   11.9215 C.ar    1  UNL1        0.0044
     32 C          65.2977   92.0018   13.2476 C.ar    1  UNL1        0.0019
     33 C          66.3905   92.8750   13.7893 C.ar    1  UNL1        0.0711
     34 C          66.8579   94.0650   13.0049 C.ar    1  UNL1        0.0077
     35 C          66.2326   94.3819   11.6788 C.ar    1  UNL1        0.0711
     36 C          65.1398   93.5088   11.1371 C.ar    1  UNL1        0.0019
     37 C          67.0159   92.5581   15.1153 C.3     1  UNL1        0.4186
     38 F          67.6412   92.2411   16.4414 F       1  UNL1       -0.1659
     39 F          66.6255   91.1186   14.9554 F       1  UNL1       -0.1659
     40 F          67.4062   93.9975   15.2752 F       1  UNL1       -0.1659
     41 C          66.7000   95.5720   10.8944 C.3     1  UNL1        0.4186
     42 F          67.1675   96.7620   10.1100 F       1  UNL1       -0.1659
     43 F          65.8467   96.4668   11.7435 F       1  UNL1       -0.1659
     44 F          67.5533   94.6771   10.0453 F       1  UNL1       -0.1659
@<TRIPOS>BOND
     1    30    29    1
     2    30    28    1
     3     1    28    1
     4     1     2    1
     5     2     3    1
     6     3     4   am
     7     4     5    2
     8     4     6    1
     9     6     7    2
    10     7    18    1
    11    18    19    2
    12    19    20    1
    13    20    21    1
    14    21    24    1
    15    24    25    1
    16    24    26    1
    17    24    27    1
    18    21    22    1
    19    22    23    1
    20     7     8    1
    21     8     9    1
    22     9    10    1
    23    10    11    1
    24    11    12   ar
    25    12    13   ar
    26    13    14   ar
    27    14    15    1
    28    14    16   ar
    29    16    17   ar
    30    30    31    1
    31    31    32   ar
    32    32    33   ar
    33    33    37    1
    34    37    38    1
    35    37    39    1
    36    37    40    1
    37    33    34   ar
    38    34    35   ar
    39    35    41    1
    40    41    42    1
    41    41    43    1
    42    41    44    1
    43    35    36   ar
    44    10     1    1
    45    17    11   ar
    46    36    31   ar
    47     9     3    1
    48    23    18    1
@<TRIPOS>MOLECULE
*****
 44 48 0 0 0
SMALL
GASTEIGER

@<TRIPOS>ATOM
      1 C          63.4560   88.8800   13.5338 C.3     1  UNL1        0.1408
      2 C          64.2206   88.1201   14.5769 C.3     1  UNL1        0.1235
      3 N          64.1548   86.6623   14.2298 N.am    1  UNL1       -0.2745
      4 C          64.7241   85.4452   14.8963 C.2     1  UNL1        0.2489
      5 O          65.5294   85.5863   16.1539 O.2     1  UNL1       -0.2699
      6 C          64.4881   84.0869   14.3053 C.2     1  UNL1        0.0534
      7 C          63.6828   83.9457   13.0477 C.2     1  UNL1       -0.0202
      8 C          63.1135   85.1629   12.3812 C.3     1  UNL1        0.0464
      9 C          63.3495   86.5212   12.9722 C.3     1  UNL1        0.0864
     10 C          62.9176   87.8918   12.5421 C.3     1  UNL1        0.0697
     11 C          62.0922   88.2170   11.3325 C.ar    1  UNL1       -0.0183
     12 C          62.4161   89.4264   10.5066 C.ar    1  UNL1       -0.0018
     13 C          61.5907   89.7517    9.2971 C.ar    1  UNL1        0.0293
     14 C          60.4414   88.8674    8.9135 C.ar    1  UNL1        0.1401
     15 F          59.6160   89.1927    7.7039 F       1  UNL1       -0.2042
     16 C          60.1175   87.6579    9.7394 C.ar    1  UNL1        0.0293
     17 C          60.9428   87.3327   10.9489 C.ar    1  UNL1       -0.0018
     18 C          63.4468   82.5874   12.4567 C.2     1  UNL1       -0.0275
     19 C          63.7608   82.3331   11.0122 C.2     1  UNL1       -0.0133
     20 C          63.5248   80.9748   10.4212 C.3     1  UNL1        0.0985
     21 N          62.9749   79.8707   11.2748 N.3     1  UNL1       -0.2712
     22 C          62.6609   80.1250   12.7194 C.3     1  UNL1        0.0770
     23 C          62.8969   81.4833   13.3103 C.3     1  UNL1        0.0431
     24 C          62.7389   78.5124   10.6838 C.3     1  UNL1        0.0458
     25 C          62.8367   79.0952    9.3052 C.3     1  UNL1        0.0160
     26 C          62.6411   77.9296   12.0625 C.3     1  UNL1        0.0160
     27 C          62.5029   77.1541   10.0929 C.3     1  UNL1        0.0160
     28 O          63.2635   90.3669   13.4902 O.3     1  UNL1       -0.3522
     29 C          63.5560   91.5979   15.7594 C.3     1  UNL1        0.0370
     30 C          64.0690   91.2542   14.3923 C.3     1  UNL1        0.1375
     31 C          65.3874   91.7979   13.9275 C.ar    1  UNL1        0.0044
     32 C          65.6660   91.9369   12.4602 C.ar    1  UNL1        0.0019
     33 C          66.9845   92.4806   11.9953 C.ar    1  UNL1        0.0711
     34 C          68.0243   92.8853   12.9977 C.ar    1  UNL1        0.0077
     35 C          67.7458   92.7462   14.4651 C.ar    1  UNL1        0.0711
     36 C          66.4273   92.2026   14.9300 C.ar    1  UNL1        0.0019
     37 C          67.2631   92.6197   10.5280 C.3     1  UNL1        0.4186
     38 F          67.5416   92.7588    9.0606 F       1  UNL1       -0.1659
     39 F          66.1102   93.5706   10.3992 F       1  UNL1       -0.1659
     40 F          68.4159   91.6688   10.6568 F       1  UNL1       -0.1659
     41 C          68.7857   93.1509   15.4675 C.3     1  UNL1        0.4186
     42 F          69.8255   93.5555   16.4700 F       1  UNL1       -0.1659
     43 F          69.8666   92.7451   14.5100 F       1  UNL1       -0.1659
     44 F          67.7047   93.5566   16.4251 F       1  UNL1       -0.1659
@<TRIPOS>BOND
     1    30    29    1
     2    30    28    1
     3     1    28    1
     4     1     2    1
     5     2     3    1
     6     3     4   am
     7     4     5    2
     8     4     6    1
     9     6     7    2
    10     7    18    1
    11    18    19    2
    12    19    20    1
    13    20    21    1
    14    21    24    1
    15    24    25    1
    16    24    26    1
    17    24    27    1
    18    21    22    1
    19    22    23    1
    20     7     8    1
    21     8     9    1
    22     9    10    1
    23    10    11    1
    24    11    12   ar
    25    12    13   ar
    26    13    14   ar
    27    14    15    1
    28    14    16   ar
    29    16    17   ar
    30    30    31    1
    31    31    32   ar
    32    32    33   ar
    33    33    37    1
    34    37    38    1
    35    37    39    1
    36    37    40    1
    37    33    34   ar
    38    34    35   ar
    39    35    41    1
    40    41    42    1
    41    41    43    1
    42    41    44    1
    43    35    36   ar
    44    10     1    1
    45    17    11   ar
    46    36    31   ar
    47     9     3    1
    48    23    18    1
