@<TRIPOS>MOLECULE
*****
 34 38 0 0 0
SMALL
GASTEIGER

@<TRIPOS>ATOM
      1 C          61.6642   85.8124    9.7379 C.3     1  UNL1        0.1350
      2 N          61.9717   87.0353   10.5503 N.ar    1  UNL1       -0.2785
      3 C          61.5145   88.3837   10.0785 C.ar    1  UNL1        0.2633
      4 O          60.7497   88.5092    8.7941 O.2     1  UNL1       -0.2669
      5 C          61.8220   89.6066   10.8908 C.ar    1  UNL1        0.0755
      6 C          62.5867   89.4811   12.1752 C.ar    1  UNL1        0.0576
      7 C          63.0440   88.1327   12.6470 C.ar    1  UNL1        0.0687
      8 C          63.8100   87.7013   13.8624 C.ar    1  UNL1        0.1248
      9 N          63.9759   86.2118   13.8011 N.ar    1  UNL1       -0.1621
     10 N          63.3125   85.7226   12.5479 N.ar    1  UNL1       -0.2137
     11 C          62.7365   86.9098   11.8346 C.ar    1  UNL1        0.1502
     12 C          63.2380   84.2966   12.0886 C.ar    1  UNL1        0.0845
     13 C          63.9661   83.8690   10.8488 C.ar    1  UNL1        0.0215
     14 C          63.8917   82.4429   10.3895 C.ar    1  UNL1        0.0312
     15 C          63.0893   81.4446   11.1700 C.ar    1  UNL1        0.1402
     16 F          63.0149   80.0185   10.7107 F       1  UNL1       -0.2042
     17 C          62.3613   81.8722   12.4099 C.ar    1  UNL1        0.0312
     18 C          62.4356   83.2981   12.8692 C.ar    1  UNL1        0.0215
     19 N          62.8942   90.7041   12.9875 N.pl3   1  UNL1       -0.3116
     20 H          62.1832   91.1380   13.5123 H       1  UNL1        0.1522
     21 C          64.2849   91.2659   13.0002 C.ar    1  UNL1        0.0592
     22 C          64.7914   92.0410   11.8201 C.ar    1  UNL1        0.0200
     23 C          66.1822   92.6029   11.8328 C.ar    1  UNL1        0.0546
     24 C          67.0664   92.3896   13.0255 C.ar    1  UNL1        0.0055
     25 C          66.5599   91.6144   14.2056 C.ar    1  UNL1        0.0128
     26 C          65.1692   91.0526   14.1929 C.ar    1  UNL1        0.0710
     27 CL         64.6627   90.2774   15.3730 Cl      1  UNL1       -0.0810
     28 C          66.6887   93.3781   10.6527 C.2     1  UNL1        0.2458
     29 O          67.5963   92.7196    9.6564 O.2     1  UNL1       -0.2701
     30 N          66.2877   94.8117   10.4690 N.am    1  UNL1       -0.3025
     31 H          65.6920   95.2439   11.1229 H       1  UNL1        0.1497
     32 C          66.7942   95.5870    9.2890 C.3     1  UNL1        0.0720
     33 C          67.3424   96.8560    8.7067 C.3     1  UNL1        0.0213
     34 C          67.1232   95.6607    7.8274 C.3     1  UNL1        0.0213
@<TRIPOS>BOND
     1     1     2    1
     2     2     3   ar
     3     3     4    2
     4     3     5   ar
     5     5     6   ar
     6     6    19    1
     7    19    21    1
     8    21    22   ar
     9    22    23   ar
    10    23    28    1
    11    28    29    2
    12    28    30   am
    13    30    32    1
    14    32    33    1
    15    33    34    1
    16    23    24   ar
    17    24    25   ar
    18    25    26   ar
    19    26    27    1
    20     6     7   ar
    21     7     8   ar
    22     8     9   ar
    23     9    10   ar
    24    10    12    1
    25    12    13   ar
    26    13    14   ar
    27    14    15   ar
    28    15    16    1
    29    15    17   ar
    30    17    18   ar
    31    10    11   ar
    32    11     2   ar
    33    26    21   ar
    34    11     7   ar
    35    34    32    1
    36    18    12   ar
    37    19    20    1
    38    30    31    1
@<TRIPOS>MOLECULE
*****
 34 38 0 0 0
SMALL
GASTEIGER

@<TRIPOS>ATOM
      1 C          64.6914   90.9936   15.2580 C.3     1  UNL1        0.1350
      2 N          63.9460   90.8265   13.9671 N.ar    1  UNL1       -0.2785
      3 C          62.6452   90.0799   13.9433 C.ar    1  UNL1        0.2633
      4 O          62.0899   89.5004   15.2106 O.2     1  UNL1       -0.2669
      5 C          61.8999   89.9127   12.6525 C.ar    1  UNL1        0.0755
      6 C          62.4552   90.4921   11.3852 C.ar    1  UNL1        0.0576
      7 C          63.7560   91.2387   11.4090 C.ar    1  UNL1        0.0687
      8 C          64.5448   91.9152   10.3272 C.ar    1  UNL1        0.1248
      9 N          65.7777   92.5004   10.9496 N.ar    1  UNL1       -0.1621
     10 N          65.7509   92.1857   12.4160 N.ar    1  UNL1       -0.2137
     11 C          64.5014   91.4059   12.6999 C.ar    1  UNL1        0.1502
     12 C          66.7910   92.5813   13.4218 C.ar    1  UNL1        0.0845
     13 C          66.5871   93.8004   14.2716 C.ar    1  UNL1        0.0215
     14 C          67.6272   94.1961   15.2775 C.ar    1  UNL1        0.0312
     15 C          68.8711   93.3726   15.4336 C.ar    1  UNL1        0.1402
     16 F          69.9112   93.7682   16.4394 F       1  UNL1       -0.2042
     17 C          69.0750   92.1534   14.5837 C.ar    1  UNL1        0.0312
     18 C          68.0350   91.7577   13.5779 C.ar    1  UNL1        0.0215
     19 N          61.7098   90.3249   10.0943 N.pl3   1  UNL1       -0.3116
     20 H          61.4495   91.1165    9.5701 H       1  UNL1        0.1522
     21 C          61.3609   88.9516    9.6022 C.ar    1  UNL1        0.0592
     22 C          62.1068   87.7576   10.1197 C.ar    1  UNL1        0.0200
     23 C          61.7580   86.3842    9.6277 C.ar    1  UNL1        0.0546
     24 C          60.6633   86.2049    8.6181 C.ar    1  UNL1        0.0055
     25 C          59.9173   87.3989    8.1005 C.ar    1  UNL1        0.0128
     26 C          60.2661   88.7723    8.5926 C.ar    1  UNL1        0.0710
     27 CL         59.5202   89.9663    8.0751 Cl      1  UNL1       -0.0810
     28 C          62.5039   85.1901   10.1451 C.2     1  UNL1        0.2458
     29 O          63.4329   84.4361    9.2404 O.2     1  UNL1       -0.2701
     30 N          62.3208   84.7500   11.5674 N.am    1  UNL1       -0.3025
     31 H          61.7111   85.2448   12.1612 H       1  UNL1        0.1497
     32 C          63.0667   83.5559   12.0849 C.3     1  UNL1        0.0720
     33 C          63.2016   82.0684   12.2235 C.3     1  UNL1        0.0213
     34 C          64.2235   82.9751   12.8428 C.3     1  UNL1        0.0213
@<TRIPOS>BOND
     1     1     2    1
     2     2     3   ar
     3     3     4    2
     4     3     5   ar
     5     5     6   ar
     6     6    19    1
     7    19    21    1
     8    21    22   ar
     9    22    23   ar
    10    23    28    1
    11    28    29    2
    12    28    30   am
    13    30    32    1
    14    32    33    1
    15    33    34    1
    16    23    24   ar
    17    24    25   ar
    18    25    26   ar
    19    26    27    1
    20     6     7   ar
    21     7     8   ar
    22     8     9   ar
    23     9    10   ar
    24    10    12    1
    25    12    13   ar
    26    13    14   ar
    27    14    15   ar
    28    15    16    1
    29    15    17   ar
    30    17    18   ar
    31    10    11   ar
    32    11     2   ar
    33    26    21   ar
    34    11     7   ar
    35    34    32    1
    36    18    12   ar
    37    19    20    1
    38    30    31    1
@<TRIPOS>MOLECULE
*****
 34 38 0 0 0
SMALL
GASTEIGER

@<TRIPOS>ATOM
      1 C          63.0650   85.4961   11.6077 C.3     1  UNL1        0.1350
      2 N          63.1344   86.8328   12.2847 N.ar    1  UNL1       -0.2785
      3 C          63.7041   86.9443   13.6679 C.ar    1  UNL1        0.2633
      4 O          64.2042   85.7189   14.3740 O.2     1  UNL1       -0.2669
      5 C          63.7736   88.2809   14.3449 C.ar    1  UNL1        0.0755
      6 C          63.2734   89.5062   13.6388 C.ar    1  UNL1        0.0576
      7 C          62.7038   89.3948   12.2557 C.ar    1  UNL1        0.0687
      8 C          62.1378   90.4194   11.3177 C.ar    1  UNL1        0.1248
      9 N          61.7186   89.7160   10.0610 N.ar    1  UNL1       -0.1621
     10 N          62.0254   88.2566   10.2222 N.ar    1  UNL1       -0.2137
     11 C          62.6343   88.0580   11.5786 C.ar    1  UNL1        0.1502
     12 C          61.7684   87.1840    9.2056 C.ar    1  UNL1        0.0845
     13 C          60.3908   87.0000    8.6414 C.ar    1  UNL1        0.0215
     14 C          60.1338   85.9274    7.6247 C.ar    1  UNL1        0.0312
     15 C          61.2544   85.0390    7.1722 C.ar    1  UNL1        0.1402
     16 F          60.9974   83.9664    6.1555 F       1  UNL1       -0.2042
     17 C          62.6320   85.2231    7.7364 C.ar    1  UNL1        0.0312
     18 C          62.8891   86.2955    8.7530 C.ar    1  UNL1        0.0215
     19 N          63.3429   90.8429   14.3159 N.pl3   1  UNL1       -0.3116
     20 H          62.5598   91.1904   14.8008 H       1  UNL1        0.1522
     21 C          64.6057   91.6501   14.2542 C.ar    1  UNL1        0.0592
     22 C          65.1881   92.0311   12.9254 C.ar    1  UNL1        0.0200
     23 C          66.4508   92.8383   12.8637 C.ar    1  UNL1        0.0546
     24 C          67.1312   93.2645   14.1307 C.ar    1  UNL1        0.0055
     25 C          66.5488   92.8836   15.4595 C.ar    1  UNL1        0.0128
     26 C          65.2861   92.0764   15.5213 C.ar    1  UNL1        0.0710
     27 CL         64.7037   91.6954   16.8501 Cl      1  UNL1       -0.0810
     28 C          67.0333   93.2193   11.5349 C.2     1  UNL1        0.2458
     29 O          68.0544   92.3353   10.8824 O.2     1  UNL1       -0.2701
     30 N          66.5945   94.4843   10.8587 N.am    1  UNL1       -0.3025
     31 H          65.9243   95.0645   11.2870 H       1  UNL1        0.1497
     32 C          67.1769   94.8654    9.5299 C.3     1  UNL1        0.0720
     33 C          67.6687   95.9177    8.5809 C.3     1  UNL1        0.0213
     34 C          67.6939   94.4732    8.1776 C.3     1  UNL1        0.0213
@<TRIPOS>BOND
     1     1     2    1
     2     2     3   ar
     3     3     4    2
     4     3     5   ar
     5     5     6   ar
     6     6    19    1
     7    19    21    1
     8    21    22   ar
     9    22    23   ar
    10    23    28    1
    11    28    29    2
    12    28    30   am
    13    30    32    1
    14    32    33    1
    15    33    34    1
    16    23    24   ar
    17    24    25   ar
    18    25    26   ar
    19    26    27    1
    20     6     7   ar
    21     7     8   ar
    22     8     9   ar
    23     9    10   ar
    24    10    12    1
    25    12    13   ar
    26    13    14   ar
    27    14    15   ar
    28    15    16    1
    29    15    17   ar
    30    17    18   ar
    31    10    11   ar
    32    11     2   ar
    33    26    21   ar
    34    11     7   ar
    35    34    32    1
    36    18    12   ar
    37    19    20    1
    38    30    31    1
@<TRIPOS>MOLECULE
*****
 34 38 0 0 0
SMALL
GASTEIGER

@<TRIPOS>ATOM
      1 C          62.3446   86.4815   10.5514 C.3     1  UNL1        0.1350
      2 N          62.6967   87.4297   11.6591 N.ar    1  UNL1       -0.2785
      3 C          62.3949   88.8923   11.5188 C.ar    1  UNL1        0.2633
      4 O          61.7409   89.4067   10.2707 O.2     1  UNL1       -0.2669
      5 C          62.7470   89.8403   12.6264 C.ar    1  UNL1        0.0755
      6 C          63.4010   89.3259   13.8746 C.ar    1  UNL1        0.0576
      7 C          63.7028   87.8633   14.0149 C.ar    1  UNL1        0.0687
      8 C          64.3365   87.0707   15.1196 C.ar    1  UNL1        0.1248
      9 N          64.3759   85.6328   14.6946 N.ar    1  UNL1       -0.1621
     10 N          63.7667   85.5366   13.3272 N.ar    1  UNL1       -0.2137
     11 C          63.3507   86.9152   12.9072 C.ar    1  UNL1        0.1502
     12 C          63.6023   84.2821   12.5215 C.ar    1  UNL1        0.0845
     13 C          64.4522   84.0543   11.3067 C.ar    1  UNL1        0.0215
     14 C          64.2878   82.7998   10.5009 C.ar    1  UNL1        0.0312
     15 C          63.2736   81.7732   10.9099 C.ar    1  UNL1        0.1402
     16 F          63.1093   80.5187   10.1041 F       1  UNL1       -0.2042
     17 C          62.4237   82.0011   12.1247 C.ar    1  UNL1        0.0312
     18 C          62.5880   83.2555   12.9305 C.ar    1  UNL1        0.0215
     19 N          63.7532   90.2741   14.9823 N.pl3   1  UNL1       -0.3116
     20 H          63.2093   90.2965   15.8026 H       1  UNL1        0.1522
     21 C          64.9339   91.1882   14.8401 C.ar    1  UNL1        0.0592
     22 C          65.6998   91.2289   13.5510 C.ar    1  UNL1        0.0200
     23 C          66.8806   92.1430   13.4087 C.ar    1  UNL1        0.0546
     24 C          67.2953   93.0164   14.5554 C.ar    1  UNL1        0.0055
     25 C          66.5294   92.9758   15.8445 C.ar    1  UNL1        0.0128
     26 C          65.3486   92.0617   15.9868 C.ar    1  UNL1        0.0710
     27 CL         64.5827   92.0210   17.2759 Cl      1  UNL1       -0.0810
     28 C          67.6466   92.1837   12.1197 C.2     1  UNL1        0.2458
     29 O          69.0071   91.5577   12.0357 O.2     1  UNL1       -0.2701
     30 N          67.0520   92.8504   10.9147 N.am    1  UNL1       -0.3025
     31 H          66.1591   93.2613   10.9699 H       1  UNL1        0.1497
     32 C          67.8180   92.8912    9.6256 C.3     1  UNL1        0.0720
     33 C          68.1960   93.6041    8.3612 C.3     1  UNL1        0.0213
     34 C          68.7667   92.2489    8.6574 C.3     1  UNL1        0.0213
@<TRIPOS>BOND
     1     1     2    1
     2     2     3   ar
     3     3     4    2
     4     3     5   ar
     5     5     6   ar
     6     6    19    1
     7    19    21    1
     8    21    22   ar
     9    22    23   ar
    10    23    28    1
    11    28    29    2
    12    28    30   am
    13    30    32    1
    14    32    33    1
    15    33    34    1
    16    23    24   ar
    17    24    25   ar
    18    25    26   ar
    19    26    27    1
    20     6     7   ar
    21     7     8   ar
    22     8     9   ar
    23     9    10   ar
    24    10    12    1
    25    12    13   ar
    26    13    14   ar
    27    14    15   ar
    28    15    16    1
    29    15    17   ar
    30    17    18   ar
    31    10    11   ar
    32    11     2   ar
    33    26    21   ar
    34    11     7   ar
    35    34    32    1
    36    18    12   ar
    37    19    20    1
    38    30    31    1
@<TRIPOS>MOLECULE
*****
 34 38 0 0 0
SMALL
GASTEIGER

@<TRIPOS>ATOM
      1 C          61.2458   85.2990    9.5046 C.3     1  UNL1        0.1350
      2 N          61.4683   86.6266   10.1664 N.ar    1  UNL1       -0.2785
      3 C          60.8415   87.8639    9.5953 C.ar    1  UNL1        0.2633
      4 O          59.9921   87.7735    8.3622 O.2     1  UNL1       -0.2669
      5 C          61.0641   89.1914   10.2571 C.ar    1  UNL1        0.0755
      6 C          61.9135   89.2817   11.4902 C.ar    1  UNL1        0.0576
      7 C          62.5403   88.0444   12.0614 C.ar    1  UNL1        0.0687
      8 C          63.4196   87.8249   13.2566 C.ar    1  UNL1        0.1248
      9 N          63.7405   86.3617   13.3334 N.ar    1  UNL1       -0.1621
     10 N          63.0595   85.6768   12.1857 N.ar    1  UNL1       -0.2137
     11 C          62.3177   86.7169   11.3995 C.ar    1  UNL1        0.1502
     12 C          63.1112   84.2096   11.8781 C.ar    1  UNL1        0.0845
     13 C          62.4242   83.2293   12.7820 C.ar    1  UNL1        0.0215
     14 C          62.4759   81.7620   12.4745 C.ar    1  UNL1        0.0312
     15 C          63.2146   81.2751   11.2632 C.ar    1  UNL1        0.1402
     16 F          63.2663   79.8079   10.9557 F       1  UNL1       -0.2042
     17 C          63.9016   82.2556   10.3594 C.ar    1  UNL1        0.0312
     18 C          63.8499   83.7228   10.6668 C.ar    1  UNL1        0.0215
     19 N          62.1360   90.6093   12.1520 N.pl3   1  UNL1       -0.3116
     20 H          61.4225   91.0136   12.6967 H       1  UNL1        0.1522
     21 C          63.4456   91.3210   11.9839 C.ar    1  UNL1        0.0592
     22 C          64.2971   91.6179   13.1825 C.ar    1  UNL1        0.0200
     23 C          65.6068   92.3296   13.0145 C.ar    1  UNL1        0.0546
     24 C          66.0649   92.7444   11.6478 C.ar    1  UNL1        0.0055
     25 C          65.2134   92.4476   10.4491 C.ar    1  UNL1        0.0128
     26 C          63.9037   91.7359   10.6171 C.ar    1  UNL1        0.0710
     27 CL         63.0522   91.4391    9.4185 Cl      1  UNL1       -0.0810
     28 C          66.4584   92.6264   14.2131 C.2     1  UNL1        0.2458
     29 O          65.8227   92.7980   15.5609 O.2     1  UNL1       -0.2701
     30 N          67.9457   92.7517   14.0639 N.am    1  UNL1       -0.3025
     31 H          68.3629   92.6390   13.1794 H       1  UNL1        0.1497
     32 C          68.7973   93.0485   15.2625 C.3     1  UNL1        0.0720
     33 C          69.4041   94.0388   16.2118 C.3     1  UNL1        0.0213
     34 C          69.6657   92.5724   16.3891 C.3     1  UNL1        0.0213
@<TRIPOS>BOND
     1     1     2    1
     2     2     3   ar
     3     3     4    2
     4     3     5   ar
     5     5     6   ar
     6     6    19    1
     7    19    21    1
     8    21    22   ar
     9    22    23   ar
    10    23    28    1
    11    28    29    2
    12    28    30   am
    13    30    32    1
    14    32    33    1
    15    33    34    1
    16    23    24   ar
    17    24    25   ar
    18    25    26   ar
    19    26    27    1
    20     6     7   ar
    21     7     8   ar
    22     8     9   ar
    23     9    10   ar
    24    10    12    1
    25    12    13   ar
    26    13    14   ar
    27    14    15   ar
    28    15    16    1
    29    15    17   ar
    30    17    18   ar
    31    10    11   ar
    32    11     2   ar
    33    26    21   ar
    34    11     7   ar
    35    34    32    1
    36    18    12   ar
    37    19    20    1
    38    30    31    1
@<TRIPOS>MOLECULE
*****
 34 38 0 0 0
SMALL
GASTEIGER

@<TRIPOS>ATOM
      1 C          60.1671   88.5556    8.6470 C.3     1  UNL1        0.1350
      2 N          60.7287   88.8764   10.0004 N.ar    1  UNL1       -0.2785
      3 C          60.3166   90.1354   10.7041 C.ar    1  UNL1        0.2633
      4 O          59.3430   91.0735   10.0543 O.2     1  UNL1       -0.2669
      5 C          60.8781   90.4563   12.0574 C.ar    1  UNL1        0.0755
      6 C          61.8518   89.5182   12.7072 C.ar    1  UNL1        0.0576
      7 C          62.2638   88.2592   12.0035 C.ar    1  UNL1        0.0687
      8 C          63.1982   87.1520   12.3921 C.ar    1  UNL1        0.1248
      9 N          63.2142   86.1469   11.2788 N.ar    1  UNL1       -0.1621
     10 N          62.2896   86.6328   10.2022 N.ar    1  UNL1       -0.2137
     11 C          61.7023   87.9384   10.6500 C.ar    1  UNL1        0.1502
     12 C          62.0028   85.9356    8.9054 C.ar    1  UNL1        0.0845
     13 C          60.6015   85.8899    8.3724 C.ar    1  UNL1        0.0215
     14 C          60.3146   85.1927    7.0756 C.ar    1  UNL1        0.0312
     15 C          61.4291   84.5413    6.3118 C.ar    1  UNL1        0.1402
     16 F          61.1422   83.8441    5.0150 F       1  UNL1       -0.2042
     17 C          62.8305   84.5870    6.8448 C.ar    1  UNL1        0.0312
     18 C          63.1174   85.2842    8.1416 C.ar    1  UNL1        0.0215
     19 N          62.4133   89.8391   14.0606 N.pl3   1  UNL1       -0.3116
     20 H          61.9896   89.4708   14.8693 H       1  UNL1        0.1522
     21 C          63.6204   90.7212   14.1819 C.ar    1  UNL1        0.0592
     22 C          64.2638   91.2853   12.9498 C.ar    1  UNL1        0.0200
     23 C          65.4709   92.1675   13.0710 C.ar    1  UNL1        0.0546
     24 C          66.0347   92.4855   14.4241 C.ar    1  UNL1        0.0055
     25 C          65.3913   91.9213   15.6561 C.ar    1  UNL1        0.0128
     26 C          64.1842   91.0392   15.5350 C.ar    1  UNL1        0.0710
     27 CL         63.5408   90.4751   16.7670 Cl      1  UNL1       -0.0810
     28 C          66.1144   92.7316   11.8390 C.2     1  UNL1        0.2458
     29 O          65.5226   93.9357   11.1681 O.2     1  UNL1       -0.2701
     30 N          67.3495   92.0917   11.2779 N.am    1  UNL1       -0.3025
     31 H          67.7379   91.3014   11.7183 H       1  UNL1        0.1497
     32 C          67.9930   92.6558   10.0460 C.3     1  UNL1        0.0720
     33 C          68.7787   92.4571    8.7837 C.3     1  UNL1        0.0213
     34 C          68.3219   93.8314    9.1744 C.3     1  UNL1        0.0213
@<TRIPOS>BOND
     1     1     2    1
     2     2     3   ar
     3     3     4    2
     4     3     5   ar
     5     5     6   ar
     6     6    19    1
     7    19    21    1
     8    21    22   ar
     9    22    23   ar
    10    23    28    1
    11    28    29    2
    12    28    30   am
    13    30    32    1
    14    32    33    1
    15    33    34    1
    16    23    24   ar
    17    24    25   ar
    18    25    26   ar
    19    26    27    1
    20     6     7   ar
    21     7     8   ar
    22     8     9   ar
    23     9    10   ar
    24    10    12    1
    25    12    13   ar
    26    13    14   ar
    27    14    15   ar
    28    15    16    1
    29    15    17   ar
    30    17    18   ar
    31    10    11   ar
    32    11     2   ar
    33    26    21   ar
    34    11     7   ar
    35    34    32    1
    36    18    12   ar
    37    19    20    1
    38    30    31    1
