@<TRIPOS>MOLECULE
*****
 40 45 0 0 0
SMALL
GASTEIGER

@<TRIPOS>ATOM
      1 C          60.0866   93.7659    2.8732 C.2     1  UNL1        0.2553
      2 O          59.9953   95.0726    3.6043 O.2     1  UNL1       -0.2720
      3 N          59.8302   93.7134    1.3963 N.am    1  UNL1       -0.2773
      4 C          59.4826   94.9675    0.6503 C.3     1  UNL1        0.0952
      5 C          59.2262   94.9149   -0.8267 C.3     1  UNL1        0.0413
      6 C          59.3175   93.6083   -1.5578 C.3     1  UNL1        0.0765
      7 C          59.6652   92.3542   -0.8118 C.3     1  UNL1        0.0413
      8 C          59.9215   92.4068    0.6652 C.3     1  UNL1        0.0952
      9 N          59.0612   93.5558   -3.0347 N.pl3   1  UNL1       -0.3054
     10 C          57.8517   92.7762   -3.4581 C.3     1  UNL1        0.1174
     11 C          57.3305   92.5380   -4.8443 C.ar    1  UNL1       -0.0060
     12 C          56.0869   91.6995   -4.8257 C.ar    1  UNL1       -0.0029
     13 C          55.4029   91.3437   -6.1124 C.ar    1  UNL1       -0.0003
     14 C          55.9625   91.8264   -7.4177 C.ar    1  UNL1       -0.0003
     15 C          57.2061   92.6649   -7.4363 C.ar    1  UNL1       -0.0042
     16 C          57.8901   93.0207   -6.1496 C.ar    1  UNL1       -0.0201
     17 C          59.1091   93.8608   -6.3910 C.3     1  UNL1        0.0536
     18 C          60.0696   94.4257   -5.3869 C.ar    1  UNL1       -0.0045
     19 C          61.1589   95.2129   -6.0529 C.ar    1  UNL1       -0.0027
     20 C          62.2268   95.8645   -5.2253 C.ar    1  UNL1       -0.0002
     21 C          62.2055   95.7288   -3.7316 C.ar    1  UNL1        0.0012
     22 C          61.1162   94.9415   -3.0655 C.ar    1  UNL1        0.0142
     23 C          60.0482   94.2899   -3.8931 C.ar    1  UNL1        0.0443
     24 N          59.1879   90.5388    5.5043 N.3     1  UNL1       -0.2688
     25 C          60.6111   90.3607    5.0653 C.3     1  UNL1        0.0756
     26 C          61.2343   91.3472    4.1227 C.3     1  UNL1        0.0590
     27 C          60.4343   92.5118    3.6192 C.3     1  UNL1        0.2042
     28 F          61.7367   92.7693    2.9211 F       1  UNL1       -0.2306
     29 C          59.0111   92.6899    4.0582 C.3     1  UNL1        0.0590
     30 C          58.3879   91.7034    5.0008 C.3     1  UNL1        0.0756
     31 C          58.5648   89.5522    6.4468 C.3     1  UNL1        0.0993
     32 N          61.8104   89.4042   10.5019 N.pl3   1  UNL1       -0.3426
     33 C          61.0504   88.6961    9.4198 C.ar    1  UNL1        0.1251
     34 C          60.1876   89.4782    8.4744 C.ar    1  UNL1        0.0310
     35 C          59.4276   88.7701    7.3922 C.ar    1  UNL1       -0.0018
     36 C          59.5304   87.2799    7.2556 C.ar    1  UNL1        0.0179
     37 C          60.3933   86.4978    8.2011 C.ar    1  UNL1        0.1000
     38 N          61.1533   87.2059    9.2831 N.ar    1  UNL1       -0.2296
     39 H          61.7430   90.3823   10.5916 H       1  UNL1        0.1437
     40 H          62.3767   88.8909   11.1225 H       1  UNL1        0.1437
@<TRIPOS>BOND
     1    32    33    1
     2    33    34   ar
     3    34    35   ar
     4    35    31    1
     5    31    24    1
     6    24    25    1
     7    25    26    1
     8    26    27    1
     9    27    28    1
    10    27     1    1
    11     1     2    2
    12     1     3   am
    13     3     4    1
    14     4     5    1
    15     5     6    1
    16     6     9    1
    17     9    10    1
    18    10    11    1
    19    11    12   ar
    20    12    13   ar
    21    13    14   ar
    22    14    15   ar
    23    15    16   ar
    24    16    17    1
    25    17    18    1
    26    18    19   ar
    27    19    20   ar
    28    20    21   ar
    29    21    22   ar
    30    22    23   ar
    31     6     7    1
    32     7     8    1
    33    27    29    1
    34    29    30    1
    35    35    36   ar
    36    36    37   ar
    37    37    38   ar
    38    38    33   ar
    39    30    24    1
    40     8     3    1
    41    23     9    1
    42    16    11   ar
    43    23    18   ar
    44    32    39    1
    45    32    40    1
@<TRIPOS>MOLECULE
*****
 40 45 0 0 0
SMALL
GASTEIGER

@<TRIPOS>ATOM
      1 C          59.5133   88.2873    7.1521 C.2     1  UNL1        0.2553
      2 O          59.3194   86.8870    6.6505 O.2     1  UNL1       -0.2720
      3 N          60.4327   88.5493    8.3079 N.am    1  UNL1       -0.2773
      4 C          61.1583   87.4110    8.9622 C.3     1  UNL1        0.0952
      5 C          62.0777   87.6731   10.1180 C.3     1  UNL1        0.0413
      6 C          62.2716   89.0733   10.6197 C.3     1  UNL1        0.0765
      7 C          61.5461   90.2117    9.9654 C.3     1  UNL1        0.0413
      8 C          60.6267   89.9496    8.8096 C.3     1  UNL1        0.0952
      9 N          63.1910   89.3353   11.7755 N.pl3   1  UNL1       -0.3054
     10 C          63.7745   90.7155   11.8432 C.3     1  UNL1        0.1174
     11 C          64.7165   91.2838   12.8628 C.ar    1  UNL1       -0.0060
     12 C          65.0561   92.7129   12.5589 C.ar    1  UNL1       -0.0029
     13 C          65.9868   93.4703   13.4589 C.ar    1  UNL1       -0.0003
     14 C          66.5779   92.7987   14.6628 C.ar    1  UNL1       -0.0003
     15 C          66.2383   91.3696   14.9668 C.ar    1  UNL1       -0.0042
     16 C          65.3076   90.6122   14.0668 C.ar    1  UNL1       -0.0201
     17 C          65.1028   89.2064   14.5483 C.3     1  UNL1        0.0536
     18 C          64.2563   88.1251   13.9450 C.ar    1  UNL1       -0.0045
     19 C          64.3315   86.8590   14.7458 C.ar    1  UNL1       -0.0027
     20 C          63.5560   85.6503   14.3126 C.ar    1  UNL1       -0.0002
     21 C          62.7052   85.7077   13.0787 C.ar    1  UNL1        0.0012
     22 C          62.6299   86.9738   12.2777 C.ar    1  UNL1        0.0142
     23 C          63.4055   88.1825   12.7109 C.ar    1  UNL1        0.0443
     24 N          59.3416   91.8115    4.7657 N.3     1  UNL1       -0.2688
     25 C          57.9398   91.5172    5.2112 C.3     1  UNL1        0.0756
     26 C          57.6629   90.3243    6.0772 C.3     1  UNL1        0.0590
     27 C          58.7878   89.4256    6.4978 C.3     1  UNL1        0.2042
     28 F          57.6380   88.7359    7.1705 F       1  UNL1       -0.2306
     29 C          60.1896   89.7199    6.0524 C.3     1  UNL1        0.0590
     30 C          60.4665   90.9129    5.1864 C.3     1  UNL1        0.0756
     31 C          59.6184   93.0046    3.8997 C.3     1  UNL1        0.0993
     32 N          58.9553   92.2660   -1.2008 N.pl3   1  UNL1       -0.3426
     33 C          59.8648   92.4487   -0.0221 C.ar    1  UNL1        0.1251
     34 C          59.2868   92.6353    1.3495 C.ar    1  UNL1        0.0310
     35 C          60.1964   92.8180    2.5282 C.ar    1  UNL1       -0.0018
     36 C          61.6839   92.8140    2.3354 C.ar    1  UNL1        0.0179
     37 C          62.2620   92.6274    0.9638 C.ar    1  UNL1        0.1000
     38 N          61.3524   92.4447   -0.2149 N.ar    1  UNL1       -0.2296
     39 H          57.9790   92.2686   -1.0742 H       1  UNL1        0.1437
     40 H          59.3347   92.1435   -2.1009 H       1  UNL1        0.1437
@<TRIPOS>BOND
     1    32    33    1
     2    33    34   ar
     3    34    35   ar
     4    35    31    1
     5    31    24    1
     6    24    25    1
     7    25    26    1
     8    26    27    1
     9    27    28    1
    10    27     1    1
    11     1     2    2
    12     1     3   am
    13     3     4    1
    14     4     5    1
    15     5     6    1
    16     6     9    1
    17     9    10    1
    18    10    11    1
    19    11    12   ar
    20    12    13   ar
    21    13    14   ar
    22    14    15   ar
    23    15    16   ar
    24    16    17    1
    25    17    18    1
    26    18    19   ar
    27    19    20   ar
    28    20    21   ar
    29    21    22   ar
    30    22    23   ar
    31     6     7    1
    32     7     8    1
    33    27    29    1
    34    29    30    1
    35    35    36   ar
    36    36    37   ar
    37    37    38   ar
    38    38    33   ar
    39    30    24    1
    40     8     3    1
    41    23     9    1
    42    16    11   ar
    43    23    18   ar
    44    32    39    1
    45    32    40    1
@<TRIPOS>MOLECULE
*****
 40 45 0 0 0
SMALL
GASTEIGER

@<TRIPOS>ATOM
      1 C          59.8002   93.7908    0.4848 C.2     1  UNL1        0.2553
      2 O          59.7222   92.5149    1.2698 O.2     1  UNL1       -0.2720
      3 N          58.7013   94.1525   -0.4698 N.am    1  UNL1       -0.2773
      4 C          57.5241   93.2384   -0.6395 C.3     1  UNL1        0.0952
      5 C          56.4251   93.6002   -1.5941 C.3     1  UNL1        0.0413
      6 C          56.5032   94.8760   -2.3790 C.3     1  UNL1        0.0765
      7 C          57.6804   95.7902   -2.2093 C.3     1  UNL1        0.0413
      8 C          58.7794   95.4284   -1.2547 C.3     1  UNL1        0.0952
      9 N          55.4043   95.2378   -3.3336 N.pl3   1  UNL1       -0.3054
     10 C          54.0922   95.6056   -2.7065 C.3     1  UNL1        0.1174
     11 C          52.8145   96.0104   -3.3800 C.ar    1  UNL1       -0.0060
     12 C          51.7341   96.2958   -2.3793 C.ar    1  UNL1       -0.0029
     13 C          50.3725   96.7180   -2.8457 C.ar    1  UNL1       -0.0003
     14 C          50.0912   96.8549   -4.3127 C.ar    1  UNL1       -0.0003
     15 C          51.1715   96.5696   -5.3133 C.ar    1  UNL1       -0.0042
     16 C          52.5332   96.1473   -4.8470 C.ar    1  UNL1       -0.0201
     17 C          53.4602   95.9132   -6.0028 C.3     1  UNL1        0.0536
     18 C          54.8974   95.4845   -5.9772 C.ar    1  UNL1       -0.0045
     19 C          55.4592   95.3674   -7.3630 C.ar    1  UNL1       -0.0027
     20 C          56.8862   94.9498   -7.5610 C.ar    1  UNL1       -0.0002
     21 C          57.7514   94.6492   -6.3731 C.ar    1  UNL1        0.0012
     22 C          57.1895   94.7662   -4.9872 C.ar    1  UNL1        0.0142
     23 C          55.7625   95.1839   -4.7892 C.ar    1  UNL1        0.0443
     24 N          63.5418   95.4296   -0.7232 N.3     1  UNL1       -0.2688
     25 C          63.1633   96.1059    0.5610 C.3     1  UNL1        0.0756
     26 C          61.8811   95.7435    1.2499 C.3     1  UNL1        0.0590
     27 C          60.9774   94.7048    0.6546 C.3     1  UNL1        0.2042
     28 F          60.1900   95.0637    1.8798 F       1  UNL1       -0.2306
     29 C          61.3560   94.0285   -0.6297 C.3     1  UNL1        0.0590
     30 C          62.6382   94.3909   -1.3186 C.3     1  UNL1        0.0756
     31 C          64.8241   95.7920   -1.4121 C.3     1  UNL1        0.0993
     32 N          64.4120   92.9266   -5.7271 N.pl3   1  UNL1       -0.3426
     33 C          64.7310   94.2315   -5.0598 C.ar    1  UNL1        0.1251
     34 C          64.6181   94.3593   -3.5696 C.ar    1  UNL1        0.0310
     35 C          64.9371   95.6643   -2.9023 C.ar    1  UNL1       -0.0018
     36 C          65.3690   96.8416   -3.7253 C.ar    1  UNL1        0.0179
     37 C          65.4820   96.7139   -5.2157 C.ar    1  UNL1        0.1000
     38 N          65.1630   95.4089   -5.8829 N.ar    1  UNL1       -0.2296
     39 H          64.1285   92.1539   -5.1869 H       1  UNL1        0.1437
     40 H          64.4862   92.8427   -6.7052 H       1  UNL1        0.1437
@<TRIPOS>BOND
     1    32    33    1
     2    33    34   ar
     3    34    35   ar
     4    35    31    1
     5    31    24    1
     6    24    25    1
     7    25    26    1
     8    26    27    1
     9    27    28    1
    10    27     1    1
    11     1     2    2
    12     1     3   am
    13     3     4    1
    14     4     5    1
    15     5     6    1
    16     6     9    1
    17     9    10    1
    18    10    11    1
    19    11    12   ar
    20    12    13   ar
    21    13    14   ar
    22    14    15   ar
    23    15    16   ar
    24    16    17    1
    25    17    18    1
    26    18    19   ar
    27    19    20   ar
    28    20    21   ar
    29    21    22   ar
    30    22    23   ar
    31     6     7    1
    32     7     8    1
    33    27    29    1
    34    29    30    1
    35    35    36   ar
    36    36    37   ar
    37    37    38   ar
    38    38    33   ar
    39    30    24    1
    40     8     3    1
    41    23     9    1
    42    16    11   ar
    43    23    18   ar
    44    32    39    1
    45    32    40    1
@<TRIPOS>MOLECULE
*****
 40 45 0 0 0
SMALL
GASTEIGER

@<TRIPOS>ATOM
      1 C          59.8861   93.4603    3.4637 C.2     1  UNL1        0.2553
      2 O          59.4392   94.6151    4.3104 O.2     1  UNL1       -0.2720
      3 N          59.9236   93.5955    1.9703 N.am    1  UNL1       -0.2773
      4 C          59.5141   94.8855    1.3235 C.3     1  UNL1        0.0952
      5 C          59.5516   95.0206   -0.1699 C.3     1  UNL1        0.0413
      6 C          59.9985   93.8659   -1.0166 C.3     1  UNL1        0.0765
      7 C          60.4079   92.5758   -0.3698 C.3     1  UNL1        0.0413
      8 C          60.3704   92.4407    1.1237 C.3     1  UNL1        0.0952
      9 N          60.0359   94.0010   -2.5099 N.pl3   1  UNL1       -0.3054
     10 C          58.7355   93.7612   -3.2180 C.3     1  UNL1        0.1174
     11 C          58.4468   93.8192   -4.6888 C.ar    1  UNL1       -0.0060
     12 C          57.0073   93.5117   -4.9773 C.ar    1  UNL1       -0.0029
     13 C          56.5083   93.5165   -6.3918 C.ar    1  UNL1       -0.0003
     14 C          57.4488   93.8288   -7.5179 C.ar    1  UNL1       -0.0003
     15 C          58.8882   94.1363   -7.2294 C.ar    1  UNL1       -0.0042
     16 C          59.3873   94.1315   -5.8149 C.ar    1  UNL1       -0.0201
     17 C          60.8487   94.4629   -5.7482 C.3     1  UNL1        0.0536
     18 C          61.7307   94.5638   -4.5391 C.ar    1  UNL1       -0.0045
     19 C          63.1382   94.9202   -4.9155 C.ar    1  UNL1       -0.0027
     20 C          64.1840   95.0712   -3.8509 C.ar    1  UNL1       -0.0002
     21 C          63.8223   94.8657   -2.4098 C.ar    1  UNL1        0.0012
     22 C          62.4147   94.5092   -2.0332 C.ar    1  UNL1        0.0142
     23 C          61.3689   94.3582   -3.0979 C.ar    1  UNL1        0.0443
     24 N          59.1812   90.0502    5.9170 N.3     1  UNL1       -0.2688
     25 C          60.5864   89.9364    5.4047 C.3     1  UNL1        0.0756
     26 C          61.1435   90.9964    4.5014 C.3     1  UNL1        0.0590
     27 C          60.2955   92.1703    4.1106 C.3     1  UNL1        0.2042
     28 F          61.5585   92.5045    3.3735 F       1  UNL1       -0.2306
     29 C          58.8903   92.2841    4.6229 C.3     1  UNL1        0.0590
     30 C          58.3332   91.2241    5.5262 C.3     1  UNL1        0.0756
     31 C          58.6242   88.9901    6.8203 C.3     1  UNL1        0.0993
     32 N          61.4939   89.4606   11.1264 N.pl3   1  UNL1       -0.3426
     33 C          60.9267   88.6085   10.0301 C.ar    1  UNL1        0.1251
     34 C          60.0591   89.2254    8.9733 C.ar    1  UNL1        0.0310
     35 C          59.4918   88.3731    7.8769 C.ar    1  UNL1       -0.0018
     36 C          59.7922   86.9041    7.8373 C.ar    1  UNL1        0.0179
     37 C          60.6599   86.2872    8.8940 C.ar    1  UNL1        0.1000
     38 N          61.2271   87.1393    9.9904 N.ar    1  UNL1       -0.2296
     39 H          61.2968   90.4248   11.1524 H       1  UNL1        0.1437
     40 H          62.0634   89.0557   11.8200 H       1  UNL1        0.1437
@<TRIPOS>BOND
     1    32    33    1
     2    33    34   ar
     3    34    35   ar
     4    35    31    1
     5    31    24    1
     6    24    25    1
     7    25    26    1
     8    26    27    1
     9    27    28    1
    10    27     1    1
    11     1     2    2
    12     1     3   am
    13     3     4    1
    14     4     5    1
    15     5     6    1
    16     6     9    1
    17     9    10    1
    18    10    11    1
    19    11    12   ar
    20    12    13   ar
    21    13    14   ar
    22    14    15   ar
    23    15    16   ar
    24    16    17    1
    25    17    18    1
    26    18    19   ar
    27    19    20   ar
    28    20    21   ar
    29    21    22   ar
    30    22    23   ar
    31     6     7    1
    32     7     8    1
    33    27    29    1
    34    29    30    1
    35    35    36   ar
    36    36    37   ar
    37    37    38   ar
    38    38    33   ar
    39    30    24    1
    40     8     3    1
    41    23     9    1
    42    16    11   ar
    43    23    18   ar
    44    32    39    1
    45    32    40    1
@<TRIPOS>MOLECULE
*****
 40 45 0 0 0
SMALL
GASTEIGER

@<TRIPOS>ATOM
      1 C          61.5820   87.1403   10.8437 C.2     1  UNL1        0.2553
      2 O          61.4732   86.1209   11.9388 O.2     1  UNL1       -0.2720
      3 N          62.3876   88.3874   11.0573 N.am    1  UNL1       -0.2773
      4 C          63.0844   88.6152   12.3660 C.3     1  UNL1        0.0952
      5 C          63.8900   89.8624   12.5795 C.3     1  UNL1        0.0413
      6 C          63.9988   90.8817   11.4844 C.3     1  UNL1        0.0765
      7 C          63.3020   90.6539   10.1757 C.3     1  UNL1        0.0413
      8 C          62.4964   89.4067    9.9622 C.3     1  UNL1        0.0952
      9 N          64.8044   92.1288   11.6980 N.pl3   1  UNL1       -0.3054
     10 C          65.0128   92.9849   10.4840 C.3     1  UNL1        0.1174
     11 C          65.7633   94.2786   10.3695 C.ar    1  UNL1       -0.0060
     12 C          65.7284   94.8101    8.9673 C.ar    1  UNL1       -0.0029
     13 C          66.4211   96.0987    8.6363 C.ar    1  UNL1       -0.0003
     14 C          67.1486   96.8559    9.7074 C.ar    1  UNL1       -0.0003
     15 C          67.1835   96.3243   11.1096 C.ar    1  UNL1       -0.0042
     16 C          66.4909   95.0357   11.4407 C.ar    1  UNL1       -0.0201
     17 C          66.6475   94.6861   12.8909 C.3     1  UNL1        0.0536
     18 C          66.1154   93.4931   13.6282 C.ar    1  UNL1       -0.0045
     19 C          66.5026   93.5266   15.0770 C.ar    1  UNL1       -0.0027
     20 C          66.0695   92.4221   15.9948 C.ar    1  UNL1       -0.0002
     21 C          65.2493   91.2841   15.4639 C.ar    1  UNL1        0.0012
     22 C          64.8621   91.2505   14.0151 C.ar    1  UNL1        0.0142
     23 C          65.2951   92.3550   13.0973 C.ar    1  UNL1        0.0443
     24 N          59.1029   88.3528    7.5990 N.3     1  UNL1       -0.2688
     25 C          59.5294   86.9422    7.3191 C.3     1  UNL1        0.0756
     26 C          60.4205   86.2220    8.2871 C.3     1  UNL1        0.0590
     27 C          60.8851   86.9124    9.5351 C.3     1  UNL1        0.2042
     28 F          61.5537   85.5809    9.7097 F       1  UNL1       -0.2306
     29 C          60.4586   88.3229    9.8150 C.3     1  UNL1        0.0590
     30 C          59.5675   89.0432    8.8470 C.3     1  UNL1        0.0756
     31 C          58.2117   89.0729    6.6309 C.3     1  UNL1        0.0993
     32 N          62.2394   91.2492    4.1729 N.pl3   1  UNL1       -0.3426
     33 C          60.7842   91.2517    4.5368 C.ar    1  UNL1        0.1251
     34 C          60.2255   90.1610    5.4019 C.ar    1  UNL1        0.0310
     35 C          58.7703   90.1635    5.7658 C.ar    1  UNL1       -0.0018
     36 C          57.8738   91.2567    5.2646 C.ar    1  UNL1        0.0179
     37 C          58.4324   92.3474    4.3994 C.ar    1  UNL1        0.1000
     38 N          59.8876   92.3449    4.0355 N.ar    1  UNL1       -0.2296
     39 H          62.8278   90.5317    4.5019 H       1  UNL1        0.1437
     40 H          62.6060   91.9650    3.6051 H       1  UNL1        0.1437
@<TRIPOS>BOND
     1    32    33    1
     2    33    34   ar
     3    34    35   ar
     4    35    31    1
     5    31    24    1
     6    24    25    1
     7    25    26    1
     8    26    27    1
     9    27    28    1
    10    27     1    1
    11     1     2    2
    12     1     3   am
    13     3     4    1
    14     4     5    1
    15     5     6    1
    16     6     9    1
    17     9    10    1
    18    10    11    1
    19    11    12   ar
    20    12    13   ar
    21    13    14   ar
    22    14    15   ar
    23    15    16   ar
    24    16    17    1
    25    17    18    1
    26    18    19   ar
    27    19    20   ar
    28    20    21   ar
    29    21    22   ar
    30    22    23   ar
    31     6     7    1
    32     7     8    1
    33    27    29    1
    34    29    30    1
    35    35    36   ar
    36    36    37   ar
    37    37    38   ar
    38    38    33   ar
    39    30    24    1
    40     8     3    1
    41    23     9    1
    42    16    11   ar
    43    23    18   ar
    44    32    39    1
    45    32    40    1
@<TRIPOS>MOLECULE
*****
 40 45 0 0 0
SMALL
GASTEIGER

@<TRIPOS>ATOM
      1 C          58.7390   90.1004    6.2587 C.2     1  UNL1        0.2553
      2 O          57.2758   90.3204    6.5052 O.2     1  UNL1       -0.2720
      3 N          59.4522   90.9035    5.2117 N.am    1  UNL1       -0.2773
      4 C          58.7023   91.9266    4.4111 C.3     1  UNL1        0.0952
      5 C          59.4156   92.7297    3.3641 C.3     1  UNL1        0.0413
      6 C          60.8788   92.5097    3.1176 C.3     1  UNL1        0.0765
      7 C          61.6287   91.4866    3.9183 C.3     1  UNL1        0.0413
      8 C          60.9154   90.6835    4.9653 C.3     1  UNL1        0.0952
      9 N          61.5920   93.3128    2.0706 N.pl3   1  UNL1       -0.3054
     10 C          62.7709   94.1066    2.5502 C.3     1  UNL1        0.1174
     11 C          63.6811   94.9996    1.7601 C.ar    1  UNL1       -0.0060
     12 C          64.7416   95.6081    2.6290 C.ar    1  UNL1       -0.0029
     13 C          65.7580   96.5363    2.0330 C.ar    1  UNL1       -0.0003
     14 C          65.7140   96.8560    0.5681 C.ar    1  UNL1       -0.0003
     15 C          64.6535   96.2475   -0.3008 C.ar    1  UNL1       -0.0042
     16 C          63.6371   95.3193    0.2952 C.ar    1  UNL1       -0.0201
     17 C          62.6720   94.8249   -0.7413 C.3     1  UNL1        0.0536
     18 C          61.5127   93.8888   -0.5691 C.ar    1  UNL1       -0.0045
     19 C          60.8008   93.6531   -1.8681 C.ar    1  UNL1       -0.0027
     20 C          59.6083   92.7445   -1.9158 C.ar    1  UNL1       -0.0002
     21 C          59.1277   92.0716   -0.6644 C.ar    1  UNL1        0.0012
     22 C          59.8396   92.3073    0.6347 C.ar    1  UNL1        0.0142
     23 C          61.0321   93.2159    0.6824 C.ar    1  UNL1        0.0443
     24 N          60.8951   88.8010    9.6948 N.3     1  UNL1       -0.2688
     25 C          60.8281   87.6343    8.7546 C.3     1  UNL1        0.0756
     26 C          60.1250   87.7724    7.4368 C.3     1  UNL1        0.0590
     27 C          59.4889   89.0773    7.0594 C.3     1  UNL1        0.2042
     28 F          59.1614   88.2659    5.8410 F       1  UNL1       -0.2306
     29 C          59.5559   90.2441    7.9996 C.3     1  UNL1        0.0590
     30 C          60.2591   90.1060    9.3174 C.3     1  UNL1        0.0756
     31 C          61.5983   88.6628   11.0126 C.3     1  UNL1        0.0993
     32 N          64.5710   90.7955   14.7023 N.pl3   1  UNL1       -0.3426
     33 C          64.0927   90.7559   13.2812 C.ar    1  UNL1        0.1251
     34 C          63.0847   89.7291   12.8575 C.ar    1  UNL1        0.0310
     35 C          62.6063   89.6896   11.4363 C.ar    1  UNL1       -0.0018
     36 C          63.1360   90.6768   10.4389 C.ar    1  UNL1        0.0179
     37 C          64.1441   91.7036   10.8627 C.ar    1  UNL1        0.1000
     38 N          64.6224   91.7432   12.2838 N.ar    1  UNL1       -0.2296
     39 H          64.2234   90.1475   15.3570 H       1  UNL1        0.1437
     40 H          65.2326   91.4694   14.9804 H       1  UNL1        0.1437
@<TRIPOS>BOND
     1    32    33    1
     2    33    34   ar
     3    34    35   ar
     4    35    31    1
     5    31    24    1
     6    24    25    1
     7    25    26    1
     8    26    27    1
     9    27    28    1
    10    27     1    1
    11     1     2    2
    12     1     3   am
    13     3     4    1
    14     4     5    1
    15     5     6    1
    16     6     9    1
    17     9    10    1
    18    10    11    1
    19    11    12   ar
    20    12    13   ar
    21    13    14   ar
    22    14    15   ar
    23    15    16   ar
    24    16    17    1
    25    17    18    1
    26    18    19   ar
    27    19    20   ar
    28    20    21   ar
    29    21    22   ar
    30    22    23   ar
    31     6     7    1
    32     7     8    1
    33    27    29    1
    34    29    30    1
    35    35    36   ar
    36    36    37   ar
    37    37    38   ar
    38    38    33   ar
    39    30    24    1
    40     8     3    1
    41    23     9    1
    42    16    11   ar
    43    23    18   ar
    44    32    39    1
    45    32    40    1
@<TRIPOS>MOLECULE
*****
 40 45 0 0 0
SMALL
GASTEIGER

@<TRIPOS>ATOM
      1 C          60.6388   87.6294    9.3353 C.2     1  UNL1        0.2553
      2 O          59.1492   87.8004    9.3811 O.2     1  UNL1       -0.2720
      3 N          61.5353   88.7283    9.8236 N.am    1  UNL1       -0.2773
      4 C          60.9423   89.9984   10.3577 C.3     1  UNL1        0.0952
      5 C          61.8389   91.0974   10.8461 C.3     1  UNL1        0.0413
      6 C          63.3284   90.9263   10.8002 C.3     1  UNL1        0.0765
      7 C          63.9214   89.6561   10.2660 C.3     1  UNL1        0.0413
      8 C          63.0248   88.5572    9.7777 C.3     1  UNL1        0.0952
      9 N          64.2249   92.0252   11.2885 N.pl3   1  UNL1       -0.3054
     10 C          64.5359   93.1026   10.2923 C.3     1  UNL1        0.1174
     11 C          65.3907   94.3224   10.4699 C.ar    1  UNL1       -0.0060
     12 C          65.4386   95.1452    9.2167 C.ar    1  UNL1       -0.0029
     13 C          66.2415   96.4117    9.1814 C.ar    1  UNL1       -0.0003
     14 C          66.9965   96.8554   10.3993 C.ar    1  UNL1       -0.0003
     15 C          66.9485   96.0325   11.6525 C.ar    1  UNL1       -0.0042
     16 C          66.1456   94.7660   11.6878 C.ar    1  UNL1       -0.0201
     17 C          66.2323   94.0994   13.0288 C.3     1  UNL1        0.0536
     18 C          65.5854   92.8246   13.4831 C.ar    1  UNL1       -0.0045
     19 C          65.9324   92.5115   14.9084 C.ar    1  UNL1       -0.0027
     20 C          65.3862   91.2754   15.5593 C.ar    1  UNL1       -0.0002
     21 C          64.4928   90.3524   14.7848 C.ar    1  UNL1        0.0012
     22 C          64.1457   90.6654   13.3594 C.ar    1  UNL1        0.0142
     23 C          64.6920   91.9015   12.7086 C.ar    1  UNL1        0.0443
     24 N          62.9242   84.0540    9.7072 N.3     1  UNL1       -0.2688
     25 C          62.4264   84.1088    8.2933 C.3     1  UNL1        0.0756
     26 C          61.5801   85.2614    7.8402 C.3     1  UNL1        0.0590
     27 C          61.2317   86.3592    8.8011 C.3     1  UNL1        0.2042
     28 F          60.5280   86.8551    7.5727 F       1  UNL1       -0.2306
     29 C          61.7295   86.3045   10.2150 C.3     1  UNL1        0.0590
     30 C          62.5757   85.1519   10.6681 C.3     1  UNL1        0.0756
     31 C          63.7704   82.9013   10.1603 C.3     1  UNL1        0.0993
     32 N          64.3109   83.1657   15.3214 N.pl3   1  UNL1       -0.3426
     33 C          63.8304   82.4377   14.1012 C.ar    1  UNL1        0.1251
     34 C          64.0407   83.0335   12.7408 C.ar    1  UNL1        0.0310
     35 C          63.5601   82.3054   11.5206 C.ar    1  UNL1       -0.0018
     36 C          62.8692   80.9815   11.6608 C.ar    1  UNL1        0.0179
     37 C          62.6589   80.3855   13.0212 C.ar    1  UNL1        0.1000
     38 N          63.1394   81.1136   14.2414 N.ar    1  UNL1       -0.2296
     39 H          64.7644   84.0347   15.2294 H       1  UNL1        0.1437
     40 H          64.1729   82.7746   16.2143 H       1  UNL1        0.1437
@<TRIPOS>BOND
     1    32    33    1
     2    33    34   ar
     3    34    35   ar
     4    35    31    1
     5    31    24    1
     6    24    25    1
     7    25    26    1
     8    26    27    1
     9    27    28    1
    10    27     1    1
    11     1     2    2
    12     1     3   am
    13     3     4    1
    14     4     5    1
    15     5     6    1
    16     6     9    1
    17     9    10    1
    18    10    11    1
    19    11    12   ar
    20    12    13   ar
    21    13    14   ar
    22    14    15   ar
    23    15    16   ar
    24    16    17    1
    25    17    18    1
    26    18    19   ar
    27    19    20   ar
    28    20    21   ar
    29    21    22   ar
    30    22    23   ar
    31     6     7    1
    32     7     8    1
    33    27    29    1
    34    29    30    1
    35    35    36   ar
    36    36    37   ar
    37    37    38   ar
    38    38    33   ar
    39    30    24    1
    40     8     3    1
    41    23     9    1
    42    16    11   ar
    43    23    18   ar
    44    32    39    1
    45    32    40    1
@<TRIPOS>MOLECULE
*****
 40 45 0 0 0
SMALL
GASTEIGER

@<TRIPOS>ATOM
      1 C          61.9633   89.5990   10.3107 C.2     1  UNL1        0.2553
      2 O          60.8695   90.0021    9.3666 O.2     1  UNL1       -0.2720
      3 N          62.1005   88.1659   10.7316 N.am    1  UNL1       -0.2773
      4 C          61.1438   87.1357   10.2084 C.3     1  UNL1        0.0952
      5 C          61.2810   85.7026   10.6294 C.3     1  UNL1        0.0413
      6 C          62.3748   85.2995   11.5734 C.3     1  UNL1        0.0765
      7 C          63.3314   86.3297   12.0966 C.3     1  UNL1        0.0413
      8 C          63.1942   87.7629   11.6756 C.3     1  UNL1        0.0952
      9 N          62.5119   83.8664   11.9943 N.pl3   1  UNL1       -0.3054
     10 C          62.5180   82.8593   10.8828 C.3     1  UNL1        0.1174
     11 C          62.6385   81.3668   10.9734 C.ar    1  UNL1       -0.0060
     12 C          62.6003   80.7305    9.6157 C.ar    1  UNL1       -0.0029
     13 C          62.7063   79.2402    9.4827 C.ar    1  UNL1       -0.0003
     14 C          62.8505   78.3863   10.7074 C.ar    1  UNL1       -0.0003
     15 C          62.8887   79.0226   12.0652 C.ar    1  UNL1       -0.0042
     16 C          62.7827   80.5129   12.1982 C.ar    1  UNL1       -0.0201
     17 C          62.8420   80.9406   13.6347 C.3     1  UNL1        0.0536
     18 C          62.7717   82.3276   14.2014 C.ar    1  UNL1       -0.0045
     19 C          62.8688   82.3138   15.6981 C.ar    1  UNL1       -0.0027
     20 C          62.8190   83.6021   16.4649 C.ar    1  UNL1       -0.0002
     21 C          62.6721   84.9041   15.7349 C.ar    1  UNL1        0.0012
     22 C          62.5750   84.9180   14.2380 C.ar    1  UNL1        0.0142
     23 C          62.6248   83.6297   13.4713 C.ar    1  UNL1        0.0443
     24 N          64.1164   91.5478   13.4270 N.3     1  UNL1       -0.2688
     25 C          64.4887   92.2321   12.1452 C.3     1  UNL1        0.0756
     26 C          63.8905   91.7729   10.8486 C.3     1  UNL1        0.0590
     27 C          62.9200   90.6293   10.8338 C.3     1  UNL1        0.2042
     28 F          62.9600   90.9558    9.3703 F       1  UNL1       -0.2306
     29 C          62.5477   89.9450   12.1156 C.3     1  UNL1        0.0590
     30 C          63.1459   90.4042   13.4122 C.3     1  UNL1        0.0756
     31 C          64.7147   92.0072   14.7236 C.3     1  UNL1        0.0993
     32 N          69.4987   91.5749   12.7422 N.pl3   1  UNL1       -0.3426
     33 C          68.5805   92.0531   13.8277 C.ar    1  UNL1        0.1251
     34 C          67.1067   91.7911   13.7329 C.ar    1  UNL1        0.0310
     35 C          66.1885   92.2693   14.8184 C.ar    1  UNL1       -0.0018
     36 C          66.7442   93.0095   15.9987 C.ar    1  UNL1        0.0179
     37 C          68.2181   93.2716   16.0935 C.ar    1  UNL1        0.1000
     38 N          69.1363   92.7934   15.0081 N.ar    1  UNL1       -0.2296
     39 H          69.1339   91.0891   11.9675 H       1  UNL1        0.1437
     40 H          70.4660   91.7469   12.8044 H       1  UNL1        0.1437
@<TRIPOS>BOND
     1    32    33    1
     2    33    34   ar
     3    34    35   ar
     4    35    31    1
     5    31    24    1
     6    24    25    1
     7    25    26    1
     8    26    27    1
     9    27    28    1
    10    27     1    1
    11     1     2    2
    12     1     3   am
    13     3     4    1
    14     4     5    1
    15     5     6    1
    16     6     9    1
    17     9    10    1
    18    10    11    1
    19    11    12   ar
    20    12    13   ar
    21    13    14   ar
    22    14    15   ar
    23    15    16   ar
    24    16    17    1
    25    17    18    1
    26    18    19   ar
    27    19    20   ar
    28    20    21   ar
    29    21    22   ar
    30    22    23   ar
    31     6     7    1
    32     7     8    1
    33    27    29    1
    34    29    30    1
    35    35    36   ar
    36    36    37   ar
    37    37    38   ar
    38    38    33   ar
    39    30    24    1
    40     8     3    1
    41    23     9    1
    42    16    11   ar
    43    23    18   ar
    44    32    39    1
    45    32    40    1
@<TRIPOS>MOLECULE
*****
 40 45 0 0 0
SMALL
GASTEIGER

@<TRIPOS>ATOM
      1 C          58.8141   90.0707    6.2414 C.2     1  UNL1        0.2553
      2 O          57.3786   90.3611    6.5659 O.2     1  UNL1       -0.2720
      3 N          59.5248   90.8778    5.1958 N.am    1  UNL1       -0.2773
      4 C          58.8000   91.9754    4.4745 C.3     1  UNL1        0.0952
      5 C          59.5107   92.7825    3.4288 C.3     1  UNL1        0.0413
      6 C          60.9461   92.4921    3.1044 C.3     1  UNL1        0.0765
      7 C          61.6709   91.3945    3.8256 C.3     1  UNL1        0.0413
      8 C          60.9601   90.5874    4.8713 C.3     1  UNL1        0.0952
      9 N          61.6568   93.2992    2.0587 N.pl3   1  UNL1       -0.3054
     10 C          62.8342   94.0946    2.5392 C.3     1  UNL1        0.1174
     11 C          63.7418   94.9915    1.7506 C.ar    1  UNL1       -0.0060
     12 C          64.8015   95.6004    2.6201 C.ar    1  UNL1       -0.0029
     13 C          65.8154   96.5323    2.0256 C.ar    1  UNL1       -0.0003
     14 C          65.7696   96.8552    0.5614 C.ar    1  UNL1       -0.0003
     15 C          64.7099   96.2463   -0.3081 C.ar    1  UNL1       -0.0042
     16 C          63.6960   95.3144    0.2864 C.ar    1  UNL1       -0.0201
     17 C          62.7313   94.8203   -0.7505 C.3     1  UNL1        0.0536
     18 C          61.5743   93.8811   -0.5796 C.ar    1  UNL1       -0.0045
     19 C          60.8620   93.6468   -1.8787 C.ar    1  UNL1       -0.0027
     20 C          59.6715   92.7356   -1.9276 C.ar    1  UNL1       -0.0002
     21 C          59.1933   92.0587   -0.6774 C.ar    1  UNL1        0.0012
     22 C          59.9056   92.2930    0.6218 C.ar    1  UNL1        0.0142
     23 C          61.0961   93.2042    0.6707 C.ar    1  UNL1        0.0443
     24 N          61.0939   88.5182    9.4874 N.3     1  UNL1       -0.2688
     25 C          60.8789   87.3879    8.5250 C.3     1  UNL1        0.0756
     26 C          60.1013   87.6153    7.2627 C.3     1  UNL1        0.0590
     27 C          59.5388   88.9731    6.9627 C.3     1  UNL1        0.2042
     28 F          59.0720   88.2241    5.7498 F       1  UNL1       -0.2306
     29 C          59.7538   90.1034    7.9251 C.3     1  UNL1        0.0590
     30 C          60.5314   89.8759    9.1875 C.3     1  UNL1        0.0756
     31 C          61.8715   88.2906   10.7498 C.3     1  UNL1        0.0993
     32 N          63.6928   84.9152   14.2553 N.pl3   1  UNL1       -0.3426
     33 C          63.2545   85.2234   12.8543 C.ar    1  UNL1        0.1251
     34 C          62.7822   86.6029   12.5026 C.ar    1  UNL1        0.0310
     35 C          62.3438   86.9111   11.1015 C.ar    1  UNL1       -0.0018
     36 C          62.3779   85.8398   10.0522 C.ar    1  UNL1        0.0179
     37 C          62.8502   84.4601   10.4040 C.ar    1  UNL1        0.1000
     38 N          63.2885   84.1519   11.8050 N.ar    1  UNL1       -0.2296
     39 H          63.6704   85.6183   14.9440 H       1  UNL1        0.1437
     40 H          64.0028   84.0097   14.4862 H       1  UNL1        0.1437
@<TRIPOS>BOND
     1    32    33    1
     2    33    34   ar
     3    34    35   ar
     4    35    31    1
     5    31    24    1
     6    24    25    1
     7    25    26    1
     8    26    27    1
     9    27    28    1
    10    27     1    1
    11     1     2    2
    12     1     3   am
    13     3     4    1
    14     4     5    1
    15     5     6    1
    16     6     9    1
    17     9    10    1
    18    10    11    1
    19    11    12   ar
    20    12    13   ar
    21    13    14   ar
    22    14    15   ar
    23    15    16   ar
    24    16    17    1
    25    17    18    1
    26    18    19   ar
    27    19    20   ar
    28    20    21   ar
    29    21    22   ar
    30    22    23   ar
    31     6     7    1
    32     7     8    1
    33    27    29    1
    34    29    30    1
    35    35    36   ar
    36    36    37   ar
    37    37    38   ar
    38    38    33   ar
    39    30    24    1
    40     8     3    1
    41    23     9    1
    42    16    11   ar
    43    23    18   ar
    44    32    39    1
    45    32    40    1
