@<TRIPOS>MOLECULE
*****
 33 36 0 0 0
SMALL
GASTEIGER

@<TRIPOS>ATOM
      1 N          64.2912   90.9167   11.8529 N.pl3   1  UNL1       -0.2931
      2 C          63.5463   90.2676   10.7243 C.3     1  UNL1        0.0926
      3 C          62.9886   88.8851   10.8907 C.3     1  UNL1        0.0306
      4 C          63.1757   88.1517   12.1857 C.3     1  UNL1        0.0802
      5 C          63.9206   88.8008   13.3143 C.3     1  UNL1        0.0306
      6 C          64.4784   90.1832   13.1479 C.3     1  UNL1        0.0926
      7 C          67.6574   93.3236   16.0908 C.3     1  UNL1        0.0379
      8 C          66.9964   93.4288   14.7485 C.ar    1  UNL1        0.0052
      9 S          67.0591   94.6090   13.8248 S.2     1  UNL1       -0.0725
     10 C          66.2581   94.2818   12.5995 C.ar    1  UNL1        0.1145
     11 N          65.9645   95.0641   11.3538 N.ar    1  UNL1       -0.2173
     12 C          65.1132   94.4639   10.2745 C.ar    1  UNL1        0.2005
     13 N          64.5554   93.0814   10.4409 N.ar    1  UNL1       -0.2090
     14 C          64.8490   92.2991   11.6866 C.ar    1  UNL1        0.1350
     15 C          65.7003   92.8993   12.7659 C.ar    1  UNL1        0.0517
     16 C          66.1566   92.3721   14.0940 C.ar    1  UNL1       -0.0151
     17 C          65.8304   91.0248   14.6670 C.3     1  UNL1        0.0314
     18 C          62.6180   86.7692   12.3520 C.2     1  UNL1        0.2257
     19 O          61.2656   86.4342   11.7964 O.2     1  UNL1       -0.2748
     20 N          63.4126   85.7218   13.0741 N.am    1  UNL1       -0.2839
     21 H          64.3002   85.9417   13.4388 H       1  UNL1        0.1549
     22 C          62.8549   84.3393   13.2404 C.ar    1  UNL1        0.0504
     23 C          62.8343   83.3937   12.0761 C.ar    1  UNL1        0.0160
     24 C          62.2765   82.0113   12.2425 C.ar    1  UNL1        0.0212
     25 C          61.7394   81.5744   13.5732 C.ar    1  UNL1        0.1218
     26 C          61.7600   82.5199   14.7374 C.ar    1  UNL1        0.0212
     27 C          62.3177   83.9024   14.5710 C.ar    1  UNL1        0.0160
     28 S          61.1816   80.1919   13.7395 S.O2    1  UNL1        0.0572
     29 N          60.6239   78.8094   13.9059 N.3     1  UNL1       -0.2035
     30 O          59.9699   80.7621   14.4153 O.2     1  UNL1       -0.1532
     31 O          62.3933   79.6217   13.0638 O.2     1  UNL1       -0.1532
     32 H          59.7206   78.8616   14.3768 H       1  UNL1        0.1442
     33 H          61.2668   78.2484   14.4648 H       1  UNL1        0.1442
@<TRIPOS>BOND
     1     7     8    1
     2     8     9   ar
     3     9    10   ar
     4    10    11   ar
     5    11    12   ar
     6    12    13   ar
     7    13    14   ar
     8    14     1    1
     9     1     2    1
    10     2     3    1
    11     3     4    1
    12     4    18    1
    13    18    19    2
    14    18    20   am
    15    20    22    1
    16    22    23   ar
    17    23    24   ar
    18    24    25   ar
    19    25    28    1
    20    28    29    1
    21    28    30    2
    22    28    31    2
    23    25    26   ar
    24    26    27   ar
    25     4     5    1
    26     5     6    1
    27    14    15   ar
    28    15    16   ar
    29    16    17    1
    30    16     8   ar
    31    15    10   ar
    32     6     1    1
    33    27    22   ar
    34    20    21    1
    35    29    32    1
    36    29    33    1
@<TRIPOS>MOLECULE
*****
 33 36 0 0 0
SMALL
GASTEIGER

@<TRIPOS>ATOM
      1 N          65.4465   92.7698   12.4205 N.pl3   1  UNL1       -0.2931
      2 C          66.0972   92.0921   13.5898 C.3     1  UNL1        0.0926
      3 C          65.6375   90.7301   14.0184 C.3     1  UNL1        0.0306
      4 C          64.5271   90.0458   13.2777 C.3     1  UNL1        0.0802
      5 C          63.8763   90.7235   12.1085 C.3     1  UNL1        0.0306
      6 C          64.3361   92.0855   11.6799 C.3     1  UNL1        0.0926
      7 C          68.6060   93.4450    7.4560 C.3     1  UNL1        0.0379
      8 C          67.9481   94.0467    8.6623 C.ar    1  UNL1        0.0052
      9 S          67.9334   95.5022    9.0246 S.2     1  UNL1       -0.0725
     10 C          67.1656   95.6536   10.3043 C.ar    1  UNL1        0.1145
     11 N          66.8257   96.8556   11.1347 N.ar    1  UNL1       -0.2173
     12 C          66.0261   96.6957   12.3936 C.ar    1  UNL1        0.2005
     13 N          65.5664   95.3338   12.8222 N.ar    1  UNL1       -0.2090
     14 C          65.9063   94.1317   11.9919 C.ar    1  UNL1        0.1350
     15 C          66.7059   94.2916   10.7329 C.ar    1  UNL1        0.0517
     16 C          67.1895   93.2985    9.7181 C.ar    1  UNL1       -0.0151
     17 C          66.9556   91.8173    9.7530 C.3     1  UNL1        0.0314
     18 C          64.0673   88.6839   13.7064 C.2     1  UNL1        0.2257
     19 O          63.7355   88.4228   15.1457 O.2     1  UNL1       -0.2748
     20 N          63.9394   87.5830   12.6956 N.am    1  UNL1       -0.2839
     21 H          64.1571   87.7543   11.7509 H       1  UNL1        0.1549
     22 C          63.4796   86.2210   13.1242 C.ar    1  UNL1        0.0504
     23 C          62.6541   85.3812   12.1950 C.ar    1  UNL1        0.0160
     24 C          62.1944   84.0193   12.6236 C.ar    1  UNL1        0.0212
     25 C          62.5601   83.4971   13.9815 C.ar    1  UNL1        0.1218
     26 C          63.3856   84.3369   14.9106 C.ar    1  UNL1        0.0212
     27 C          63.8453   85.6988   14.4820 C.ar    1  UNL1        0.0160
     28 S          62.1004   82.1351   14.4101 S.O2    1  UNL1        0.0572
     29 N          61.6407   80.7732   14.8387 N.3     1  UNL1       -0.2035
     30 O          62.2557   82.5351   15.8474 O.2     1  UNL1       -0.1532
     31 O          61.9451   81.7352   12.9727 O.2     1  UNL1       -0.1532
     32 H          61.6360   80.7209   15.8573 H       1  UNL1        0.1442
     33 H          62.2747   80.0671   14.4649 H       1  UNL1        0.1442
@<TRIPOS>BOND
     1     7     8    1
     2     8     9   ar
     3     9    10   ar
     4    10    11   ar
     5    11    12   ar
     6    12    13   ar
     7    13    14   ar
     8    14     1    1
     9     1     2    1
    10     2     3    1
    11     3     4    1
    12     4    18    1
    13    18    19    2
    14    18    20   am
    15    20    22    1
    16    22    23   ar
    17    23    24   ar
    18    24    25   ar
    19    25    28    1
    20    28    29    1
    21    28    30    2
    22    28    31    2
    23    25    26   ar
    24    26    27   ar
    25     4     5    1
    26     5     6    1
    27    14    15   ar
    28    15    16   ar
    29    16    17    1
    30    16     8   ar
    31    15    10   ar
    32     6     1    1
    33    27    22   ar
    34    20    21    1
    35    29    32    1
    36    29    33    1
@<TRIPOS>MOLECULE
*****
 33 36 0 0 0
SMALL
GASTEIGER

@<TRIPOS>ATOM
      1 N          64.4908   89.6913   14.1324 N.pl3   1  UNL1       -0.2931
      2 C          64.9373   88.4620   14.8667 C.3     1  UNL1        0.0926
      3 C          64.5285   87.1050   14.3755 C.3     1  UNL1        0.0306
      4 C          63.6732   86.9773   13.1499 C.3     1  UNL1        0.0802
      5 C          63.2267   88.2066   12.4155 C.3     1  UNL1        0.0306
      6 C          63.6355   89.5636   12.9068 C.3     1  UNL1        0.0926
      7 C          66.4370   93.7967   10.3320 C.3     1  UNL1        0.0379
      8 C          66.1056   93.3881   11.7367 C.ar    1  UNL1        0.0052
      9 S          66.2415   94.2458   12.9598 S.2     1  UNL1       -0.0725
     10 C          65.8000   93.4378   14.1440 C.ar    1  UNL1        0.1145
     11 N          65.7173   93.7624   15.6060 N.ar    1  UNL1       -0.2173
     12 C          65.2259   92.7301   16.5769 C.ar    1  UNL1        0.2005
     13 N          64.8171   91.3730   16.0857 N.ar    1  UNL1       -0.2090
     14 C          64.8997   91.0484   14.6236 C.ar    1  UNL1        0.1350
     15 C          65.3911   92.0808   13.6527 C.ar    1  UNL1        0.0517
     16 C          65.5800   92.0501   12.1650 C.ar    1  UNL1       -0.0151
     17 C          65.2936   90.8857   11.2637 C.3     1  UNL1        0.0314
     18 C          63.2643   85.6202   12.6587 C.2     1  UNL1        0.2257
     19 O          61.8895   85.4085   12.0976 O.2     1  UNL1       -0.2748
     20 N          64.2304   84.4749   12.7285 N.am    1  UNL1       -0.2839
     21 H          65.1328   84.6138   13.0968 H       1  UNL1        0.1549
     22 C          63.8215   83.1178   12.2373 C.ar    1  UNL1        0.0504
     23 C          63.2165   82.1272   13.1874 C.ar    1  UNL1        0.0160
     24 C          62.8077   80.7702   12.6962 C.ar    1  UNL1        0.0212
     25 C          63.0039   80.4038   11.2549 C.ar    1  UNL1        0.1218
     26 C          63.6089   81.3944   10.3048 C.ar    1  UNL1        0.0212
     27 C          64.0177   82.7514   10.7961 C.ar    1  UNL1        0.0160
     28 S          62.5950   79.0467   10.7636 S.O2    1  UNL1        0.0572
     29 N          62.1862   77.6897   10.2724 N.3     1  UNL1       -0.2035
     30 O          62.7507   79.5128    9.3464 O.2     1  UNL1       -0.1532
     31 O          62.4394   78.5806   12.1808 O.2     1  UNL1       -0.1532
     32 H          62.1933   77.6809    9.2525 H       1  UNL1        0.1442
     33 H          61.2470   77.4755   10.6077 H       1  UNL1        0.1442
@<TRIPOS>BOND
     1     7     8    1
     2     8     9   ar
     3     9    10   ar
     4    10    11   ar
     5    11    12   ar
     6    12    13   ar
     7    13    14   ar
     8    14     1    1
     9     1     2    1
    10     2     3    1
    11     3     4    1
    12     4    18    1
    13    18    19    2
    14    18    20   am
    15    20    22    1
    16    22    23   ar
    17    23    24   ar
    18    24    25   ar
    19    25    28    1
    20    28    29    1
    21    28    30    2
    22    28    31    2
    23    25    26   ar
    24    26    27   ar
    25     4     5    1
    26     5     6    1
    27    14    15   ar
    28    15    16   ar
    29    16    17    1
    30    16     8   ar
    31    15    10   ar
    32     6     1    1
    33    27    22   ar
    34    20    21    1
    35    29    32    1
    36    29    33    1
@<TRIPOS>MOLECULE
*****
 33 36 0 0 0
SMALL
GASTEIGER

@<TRIPOS>ATOM
      1 N          65.0886   91.1978   13.4890 N.pl3   1  UNL1       -0.2931
      2 C          65.4747   90.1364   14.4760 C.3     1  UNL1        0.0926
      3 C          64.8883   88.7602   14.3653 C.3     1  UNL1        0.0306
      4 C          63.9158   88.4455   13.2676 C.3     1  UNL1        0.0802
      5 C          63.5297   89.5069   12.2805 C.3     1  UNL1        0.0306
      6 C          64.1161   90.8831   12.3912 C.3     1  UNL1        0.0926
      7 C          65.9547   94.4887    8.6409 C.3     1  UNL1        0.0379
      8 C          66.0448   94.3306   10.1298 C.ar    1  UNL1        0.0052
      9 S          66.5721   95.3509   11.0946 S.2     1  UNL1       -0.0725
     10 C          66.4766   94.7752   12.4764 C.ar    1  UNL1        0.1145
     11 N          66.8478   95.3264   13.8212 N.ar    1  UNL1       -0.2173
     12 C          66.6326   94.5013   15.0552 C.ar    1  UNL1        0.2005
     13 N          66.0462   93.1251   14.9445 N.ar    1  UNL1       -0.2090
     14 C          65.6750   92.5740   13.5997 C.ar    1  UNL1        0.1350
     15 C          65.8902   93.3991   12.3657 C.ar    1  UNL1        0.0517
     16 C          65.6233   93.1243   10.9154 C.ar    1  UNL1       -0.0151
     17 C          65.0378   91.8643   10.3500 C.3     1  UNL1        0.0314
     18 C          63.3294   87.0693   13.1568 C.2     1  UNL1        0.2257
     19 O          62.2249   86.8012   12.1780 O.2     1  UNL1       -0.2748
     20 N          63.8475   85.9612   14.0249 N.am    1  UNL1       -0.2839
     21 H          64.5725   86.1371   14.6674 H       1  UNL1        0.1549
     22 C          63.2611   84.5850   13.9142 C.ar    1  UNL1        0.0504
     23 C          63.5300   83.7509   12.6968 C.ar    1  UNL1        0.0160
     24 C          62.9436   82.3747   12.5860 C.ar    1  UNL1        0.0212
     25 C          62.0883   81.8326   13.6928 C.ar    1  UNL1        0.1218
     26 C          61.8195   82.6667   14.9101 C.ar    1  UNL1        0.0212
     27 C          62.4059   84.0429   15.0208 C.ar    1  UNL1        0.0160
     28 S          61.5019   80.4565   13.5820 S.O2    1  UNL1        0.0572
     29 N          60.9155   79.0803   13.4713 N.3     1  UNL1       -0.2035
     30 O          60.3392   80.8838   14.4279 O.2     1  UNL1       -0.1532
     31 O          62.6646   80.0291   12.7361 O.2     1  UNL1       -0.1532
     32 H          60.0372   79.0423   13.9885 H       1  UNL1        0.1442
     33 H          61.5686   78.4001   13.8601 H       1  UNL1        0.1442
@<TRIPOS>BOND
     1     7     8    1
     2     8     9   ar
     3     9    10   ar
     4    10    11   ar
     5    11    12   ar
     6    12    13   ar
     7    13    14   ar
     8    14     1    1
     9     1     2    1
    10     2     3    1
    11     3     4    1
    12     4    18    1
    13    18    19    2
    14    18    20   am
    15    20    22    1
    16    22    23   ar
    17    23    24   ar
    18    24    25   ar
    19    25    28    1
    20    28    29    1
    21    28    30    2
    22    28    31    2
    23    25    26   ar
    24    26    27   ar
    25     4     5    1
    26     5     6    1
    27    14    15   ar
    28    15    16   ar
    29    16    17    1
    30    16     8   ar
    31    15    10   ar
    32     6     1    1
    33    27    22   ar
    34    20    21    1
    35    29    32    1
    36    29    33    1
@<TRIPOS>MOLECULE
*****
 33 36 0 0 0
SMALL
GASTEIGER

@<TRIPOS>ATOM
      1 N          59.0619   89.6253    6.8689 N.pl3   1  UNL1       -0.2931
      2 C          59.0183   88.1354    6.7007 C.3     1  UNL1        0.0926
      3 C          59.6364   87.2452    7.7378 C.3     1  UNL1        0.0306
      4 C          60.2980   87.8448    8.9430 C.3     1  UNL1        0.0802
      5 C          60.3415   89.3347    9.1112 C.3     1  UNL1        0.0306
      6 C          59.7235   90.2249    8.0742 C.3     1  UNL1        0.0926
      7 C          62.4573   92.3930    2.8820 C.3     1  UNL1        0.0379
      8 C          61.0970   92.1031    3.4438 C.ar    1  UNL1        0.0052
      9 S          59.7974   92.6528    2.9350 S.2     1  UNL1       -0.0725
     10 C          58.6947   92.1020    3.7898 C.ar    1  UNL1        0.1145
     11 N          57.2077   92.2960    3.7578 N.ar    1  UNL1       -0.2173
     12 C          56.3387   91.5998    4.7628 C.ar    1  UNL1        0.2005
     13 N          56.9568   90.7095    5.7999 N.ar    1  UNL1       -0.2090
     14 C          58.4438   90.5155    5.8319 C.ar    1  UNL1        0.1350
     15 C          59.3128   91.2117    4.8268 C.ar    1  UNL1        0.0517
     16 C          60.7974   91.2124    4.6130 C.ar    1  UNL1       -0.0151
     17 C          61.8056   90.4553    5.4257 C.3     1  UNL1        0.0314
     18 C          60.9161   86.9546    9.9801 C.2     1  UNL1        0.2257
     19 O          60.6304   87.1865   11.4342 O.2     1  UNL1       -0.2748
     20 N          61.8198   85.8325    9.5630 N.am    1  UNL1       -0.2839
     21 H          62.0074   85.6803    8.6086 H       1  UNL1        0.1549
     22 C          62.4379   84.9422   10.6001 C.ar    1  UNL1        0.0504
     23 C          62.1595   85.1798   12.0548 C.ar    1  UNL1        0.0160
     24 C          62.7775   84.2896   13.0918 C.ar    1  UNL1        0.0212
     25 C          63.6740   83.1618   12.6742 C.ar    1  UNL1        0.1218
     26 C          63.9524   82.9242   11.2195 C.ar    1  UNL1        0.0212
     27 C          63.3344   83.8145   10.1825 C.ar    1  UNL1        0.0160
     28 S          64.2921   82.2715   13.7112 S.O2    1  UNL1        0.0572
     29 N          64.9102   81.3813   14.7483 N.3     1  UNL1       -0.2035
     30 O          63.9051   81.0660   12.9070 O.2     1  UNL1       -0.1532
     31 O          64.6791   83.4771   14.5155 O.2     1  UNL1       -0.1532
     32 H          64.8022   80.4066   14.4677 H       1  UNL1        0.1442
     33 H          64.4465   81.5305   15.6445 H       1  UNL1        0.1442
@<TRIPOS>BOND
     1     7     8    1
     2     8     9   ar
     3     9    10   ar
     4    10    11   ar
     5    11    12   ar
     6    12    13   ar
     7    13    14   ar
     8    14     1    1
     9     1     2    1
    10     2     3    1
    11     3     4    1
    12     4    18    1
    13    18    19    2
    14    18    20   am
    15    20    22    1
    16    22    23   ar
    17    23    24   ar
    18    24    25   ar
    19    25    28    1
    20    28    29    1
    21    28    30    2
    22    28    31    2
    23    25    26   ar
    24    26    27   ar
    25     4     5    1
    26     5     6    1
    27    14    15   ar
    28    15    16   ar
    29    16    17    1
    30    16     8   ar
    31    15    10   ar
    32     6     1    1
    33    27    22   ar
    34    20    21    1
    35    29    32    1
    36    29    33    1
@<TRIPOS>MOLECULE
*****
 33 36 0 0 0
SMALL
GASTEIGER

@<TRIPOS>ATOM
      1 N          61.6927   87.3885   10.4006 N.pl3   1  UNL1       -0.2931
      2 C          61.2075   88.7997   10.5523 C.3     1  UNL1        0.0926
      3 C          60.7237   89.5595    9.3529 C.3     1  UNL1        0.0306
      4 C          60.7250   88.9081    8.0017 C.3     1  UNL1        0.0802
      5 C          61.2102   87.4969    7.8500 C.3     1  UNL1        0.0306
      6 C          61.6940   86.7371    9.0494 C.3     1  UNL1        0.0926
      7 C          64.9505   90.0861   14.5471 C.3     1  UNL1        0.0379
      8 C          64.2779   88.8475   14.0338 C.ar    1  UNL1        0.0052
      9 S          64.2739   87.5047   14.7024 S.2     1  UNL1       -0.0725
     10 C          63.4847   86.5616   13.8436 C.ar    1  UNL1        0.1145
     11 N          63.1441   85.1090   13.9988 N.ar    1  UNL1       -0.2173
     12 C          62.3197   84.4163   12.9546 C.ar    1  UNL1        0.2005
     13 N          61.8359   85.1761   11.7552 N.ar    1  UNL1       -0.2090
     14 C          62.1765   86.6287   11.6000 C.ar    1  UNL1        0.1350
     15 C          63.0009   87.3214   12.6442 C.ar    1  UNL1        0.0517
     16 C          63.4911   88.7341   12.7618 C.ar    1  UNL1       -0.0151
     17 C          63.2388   89.8395   11.7796 C.3     1  UNL1        0.0314
     18 C          60.2412   89.6679    6.8023 C.2     1  UNL1        0.2257
     19 O          58.8062   89.5649    6.3780 O.2     1  UNL1       -0.2748
     20 N          61.1924   90.5306    6.0272 N.am    1  UNL1       -0.2839
     21 H          62.1343   90.5982    6.3057 H       1  UNL1        0.1549
     22 C          60.7086   91.2904    4.8278 C.ar    1  UNL1        0.0504
     23 C          59.2625   91.6729    4.7154 C.ar    1  UNL1        0.0160
     24 C          58.7787   92.4327    3.5160 C.ar    1  UNL1        0.0212
     25 C          59.7410   92.8101    2.4289 C.ar    1  UNL1        0.1218
     26 C          61.1870   92.4276    2.5413 C.ar    1  UNL1        0.0212
     27 C          61.6708   91.6678    3.7407 C.ar    1  UNL1        0.0160
     28 S          59.2572   93.5699    1.2295 S.O2    1  UNL1        0.0572
     29 N          58.7734   94.3297    0.0301 N.3     1  UNL1       -0.2035
     30 O          59.6408   94.8598    1.8919 O.2     1  UNL1       -0.1532
     31 O          58.8735   92.2799    0.5671 O.2     1  UNL1       -0.1532
     32 H          58.9097   95.3289    0.1829 H       1  UNL1        0.1442
     33 H          57.7817   94.1401   -0.1152 H       1  UNL1        0.1442
@<TRIPOS>BOND
     1     7     8    1
     2     8     9   ar
     3     9    10   ar
     4    10    11   ar
     5    11    12   ar
     6    12    13   ar
     7    13    14   ar
     8    14     1    1
     9     1     2    1
    10     2     3    1
    11     3     4    1
    12     4    18    1
    13    18    19    2
    14    18    20   am
    15    20    22    1
    16    22    23   ar
    17    23    24   ar
    18    24    25   ar
    19    25    28    1
    20    28    29    1
    21    28    30    2
    22    28    31    2
    23    25    26   ar
    24    26    27   ar
    25     4     5    1
    26     5     6    1
    27    14    15   ar
    28    15    16   ar
    29    16    17    1
    30    16     8   ar
    31    15    10   ar
    32     6     1    1
    33    27    22   ar
    34    20    21    1
    35    29    32    1
    36    29    33    1
@<TRIPOS>MOLECULE
*****
 33 36 0 0 0
SMALL
GASTEIGER

@<TRIPOS>ATOM
      1 N          61.2398   87.0420   10.2095 N.pl3   1  UNL1       -0.2931
      2 C          60.3941   86.4632    9.1141 C.3     1  UNL1        0.0926
      3 C          60.0020   87.3120    7.9412 C.3     1  UNL1        0.0306
      4 C          60.4555   88.7397    7.8637 C.3     1  UNL1        0.0802
      5 C          61.3011   89.3185    8.9591 C.3     1  UNL1        0.0306
      6 C          61.6932   88.4696   10.1320 C.3     1  UNL1        0.0926
      7 C          64.7312   82.3164    9.4588 C.3     1  UNL1        0.0379
      8 C          63.9361   83.2057   10.3682 C.ar    1  UNL1        0.0052
      9 S          63.7860   83.0416   11.8517 S.2     1  UNL1       -0.0725
     10 C          62.9086   84.1497   12.3542 C.ar    1  UNL1        0.1145
     11 N          62.4161   84.4954   13.7282 N.ar    1  UNL1       -0.2173
     12 C          61.5315   85.6899   13.9293 C.ar    1  UNL1        0.2005
     13 N          61.1394   86.5388   12.7564 N.ar    1  UNL1       -0.2090
     14 C          61.6319   86.1931   11.3824 C.ar    1  UNL1        0.1350
     15 C          62.5165   84.9986   11.1813 C.ar    1  UNL1        0.0517
     16 C          63.1515   84.4151    9.9539 C.ar    1  UNL1       -0.0151
     17 C          63.0243   84.9477    8.5574 C.3     1  UNL1        0.0314
     18 C          60.0634   89.5886    6.6908 C.2     1  UNL1        0.2257
     19 O          58.6334   89.6302    6.2399 O.2     1  UNL1       -0.2748
     20 N          61.1012   90.3958    5.9689 N.am    1  UNL1       -0.2839
     21 H          62.0398   90.3685    6.2649 H       1  UNL1        0.1549
     22 C          60.7091   91.2447    4.7960 C.ar    1  UNL1        0.0504
     23 C          61.7240   91.5883    3.7463 C.ar    1  UNL1        0.0160
     24 C          61.3319   92.4372    2.5734 C.ar    1  UNL1        0.0212
     25 C          59.9249   92.9424    2.4502 C.ar    1  UNL1        0.1218
     26 C          58.9100   92.5987    3.4999 C.ar    1  UNL1        0.0212
     27 C          59.3022   91.7498    4.6728 C.ar    1  UNL1        0.0160
     28 S          59.5327   93.7912    1.2773 S.O2    1  UNL1        0.0572
     29 N          59.1406   94.6401    0.1045 N.3     1  UNL1       -0.2035
     30 O          59.7693   95.0276    2.0931 O.2     1  UNL1       -0.1532
     31 O          59.2962   92.5549    0.4616 O.2     1  UNL1       -0.1532
     32 H          59.2034   95.6252    0.3616 H       1  UNL1        0.1442
     33 H          58.1829   94.4205   -0.1691 H       1  UNL1        0.1442
@<TRIPOS>BOND
     1     7     8    1
     2     8     9   ar
     3     9    10   ar
     4    10    11   ar
     5    11    12   ar
     6    12    13   ar
     7    13    14   ar
     8    14     1    1
     9     1     2    1
    10     2     3    1
    11     3     4    1
    12     4    18    1
    13    18    19    2
    14    18    20   am
    15    20    22    1
    16    22    23   ar
    17    23    24   ar
    18    24    25   ar
    19    25    28    1
    20    28    29    1
    21    28    30    2
    22    28    31    2
    23    25    26   ar
    24    26    27   ar
    25     4     5    1
    26     5     6    1
    27    14    15   ar
    28    15    16   ar
    29    16    17    1
    30    16     8   ar
    31    15    10   ar
    32     6     1    1
    33    27    22   ar
    34    20    21    1
    35    29    32    1
    36    29    33    1
@<TRIPOS>MOLECULE
*****
 33 36 0 0 0
SMALL
GASTEIGER

@<TRIPOS>ATOM
      1 N          62.4117   85.9380   12.4227 N.pl3   1  UNL1       -0.2931
      2 C          61.3255   85.5940   11.4471 C.3     1  UNL1        0.0926
      3 C          60.9479   86.5682   10.3709 C.3     1  UNL1        0.0306
      4 C          61.6564   87.8865   10.2703 C.3     1  UNL1        0.0802
      5 C          62.7425   88.2305   11.2459 C.3     1  UNL1        0.0306
      6 C          63.1202   87.2563   12.3221 C.3     1  UNL1        0.0926
      7 C          63.2044   80.2098   11.1405 C.3     1  UNL1        0.0379
      8 C          63.1934   81.3199   12.1492 C.ar    1  UNL1        0.0052
      9 S          63.4925   81.1843   13.6128 S.2     1  UNL1       -0.0725
     10 C          63.3653   82.5411   14.2397 C.ar    1  UNL1        0.1145
     11 N          63.5446   83.0153   15.6514 N.ar    1  UNL1       -0.2173
     12 C          63.3462   84.4638   15.9868 C.ar    1  UNL1        0.2005
     13 N          62.9686   85.4380   14.9106 N.ar    1  UNL1       -0.2090
     14 C          62.7893   84.9638   13.4989 C.ar    1  UNL1        0.1350
     15 C          62.9877   83.5153   13.1634 C.ar    1  UNL1        0.0517
     16 C          62.8814   82.7606   11.8715 C.ar    1  UNL1       -0.0151
     17 C          62.5257   83.3441   10.5362 C.3     1  UNL1        0.0314
     18 C          61.2787   88.8607    9.1940 C.2     1  UNL1        0.2257
     19 O          61.6848   90.3001    9.3092 O.2     1  UNL1       -0.2748
     20 N          60.4950   88.3956    8.0027 N.am    1  UNL1       -0.2839
     21 H          60.2284   87.4509    7.9271 H       1  UNL1        0.1549
     22 C          60.1173   89.3698    6.9265 C.ar    1  UNL1        0.0504
     23 C          58.6716   89.6616    6.6526 C.ar    1  UNL1        0.0160
     24 C          58.2940   90.6359    5.5763 C.ar    1  UNL1        0.0212
     25 C          59.3620   91.3183    4.7740 C.ar    1  UNL1        0.1218
     26 C          60.8076   91.0265    5.0480 C.ar    1  UNL1        0.0212
     27 C          61.1853   90.0523    6.1242 C.ar    1  UNL1        0.0160
     28 S          58.9844   92.2926    3.6978 S.O2    1  UNL1        0.0572
     29 N          58.6067   93.2668    2.6216 N.3     1  UNL1       -0.2035
     30 O          57.5370   92.1254    4.0544 O.2     1  UNL1       -0.1532
     31 O          60.4318   92.4597    3.3413 O.2     1  UNL1       -0.1532
     32 H          57.5932   93.3804    2.6062 H       1  UNL1        0.1442
     33 H          58.9231   92.9148    1.7180 H       1  UNL1        0.1442
@<TRIPOS>BOND
     1     7     8    1
     2     8     9   ar
     3     9    10   ar
     4    10    11   ar
     5    11    12   ar
     6    12    13   ar
     7    13    14   ar
     8    14     1    1
     9     1     2    1
    10     2     3    1
    11     3     4    1
    12     4    18    1
    13    18    19    2
    14    18    20   am
    15    20    22    1
    16    22    23   ar
    17    23    24   ar
    18    24    25   ar
    19    25    28    1
    20    28    29    1
    21    28    30    2
    22    28    31    2
    23    25    26   ar
    24    26    27   ar
    25     4     5    1
    26     5     6    1
    27    14    15   ar
    28    15    16   ar
    29    16    17    1
    30    16     8   ar
    31    15    10   ar
    32     6     1    1
    33    27    22   ar
    34    20    21    1
    35    29    32    1
    36    29    33    1
