@<TRIPOS>MOLECULE
*****
 58 63 0 0 0
SMALL
GASTEIGER

@<TRIPOS>ATOM
      1 N          60.0925   89.2595    8.2159 N.3     1  UNL1       -0.2650
      2 C          59.6390   87.8469    8.4368 C.3     1  UNL1        0.0900
      3 C          60.0337   87.1194    9.6878 C.3     1  UNL1        0.0901
      4 N          60.8820   87.8046   10.7178 N.3     1  UNL1       -0.2621
      5 C          61.3355   89.2172   10.4969 C.3     1  UNL1        0.1510
      6 C          60.9408   89.9447    9.2459 C.3     1  UNL1        0.0980
      7 C          62.1838   89.9023   11.5270 C.2     1  UNL1        0.2386
      8 O          61.9563   89.6338   12.9851 O.2     1  UNL1       -0.2736
      9 N          63.2596   90.8560   11.0989 N.am    1  UNL1       -0.2961
     10 H          63.4089   91.0323   10.1419 H       1  UNL1        0.1497
     11 C          64.1078   91.5412   12.1289 C.3     1  UNL1        0.1939
     12 C          65.2434   92.4223   11.6998 C.3     1  UNL1        0.4154
     13 F          66.3790   93.3034   11.2707 F       1  UNL1       -0.1682
     14 F          65.2576   91.7508   10.3586 F       1  UNL1       -0.1682
     15 F          65.2291   93.0938   13.0410 F       1  UNL1       -0.1682
     16 C          60.9759   90.7702    7.0171 C.3     1  UNL1        0.0255
     17 C          59.6978   89.9870    6.9649 C.3     1  UNL1        0.1147
     18 C          58.4196   89.2037    6.9127 C.3     1  UNL1        0.0255
     19 C          59.3030   90.7144    5.7139 C.ar    1  UNL1        0.2186
     20 N          57.9010   90.9439    5.2325 N.ar    1  UNL1       -0.2093
     21 C          57.9725   91.7114    3.9457 C.ar    1  UNL1        0.1407
     22 C          59.4187   91.9563    3.6318 C.ar    1  UNL1        0.1834
     23 O          60.2411   91.3402    4.7246 O.2     1  UNL1       -0.4355
     24 C          59.9494   92.6888    2.4352 C.ar    1  UNL1        0.1173
     25 C          61.4293   92.7852    2.2104 C.ar    1  UNL1        0.0223
     26 C          61.9601   93.5176    1.0139 C.ar    1  UNL1        0.0032
     27 C          61.0109   94.1538    0.0421 C.ar    1  UNL1        0.0207
     28 C          59.5309   94.0574    0.2669 C.ar    1  UNL1        0.0989
     29 N          59.0002   93.3250    1.4635 N.ar    1  UNL1       -0.2407
     30 C          61.2767   87.0771   11.9688 C.3     1  UNL1        0.1021
     31 C          62.3785   86.0600   11.9290 C.3     1  UNL1        0.1269
     32 O          62.1013   84.6732   11.4292 O.3     1  UNL1       -0.3830
     33 H          61.1683   84.6022   11.1735 H       1  UNL1        0.2104
     34 C          63.7575   86.4298   12.3891 C.3     1  UNL1        0.0401
     35 C          64.1281   86.2900   13.8358 C.3     1  UNL1        0.0833
     36 C          64.1084   87.4909   14.7345 C.2     1  UNL1        0.2226
     37 O          63.7075   87.3449   16.1726 O.2     1  UNL1       -0.2751
     38 N          64.4895   88.8376   14.1952 N.am    1  UNL1       -0.2999
     39 H          64.7526   88.9334   13.2513 H       1  UNL1        0.1498
     40 C          64.4697   90.0385   15.0938 C.3     1  UNL1        0.1278
     41 C          65.6575   90.9527   15.1501 C.ar    1  UNL1        0.0320
     42 C          66.8652   90.6662   14.3076 C.ar    1  UNL1        0.0004
     43 C          68.0529   91.5805   14.3639 C.ar    1  UNL1       -0.0001
     44 C          68.0332   92.7813   15.2626 C.ar    1  UNL1        0.0031
     45 C          66.8257   93.0679   16.1050 C.ar    1  UNL1        0.0366
     46 C          65.6378   92.1536   16.0488 C.ar    1  UNL1        0.1362
     47 O          64.4303   92.4401   16.8912 O.3     1  UNL1       -0.4730
     48 C          63.2425   91.5258   16.8349 C.3     1  UNL1        0.2364
     49 C          63.2622   90.3250   15.9362 C.3     1  UNL1        0.1762
     50 O          62.0743   89.4107   15.8800 O.3     1  UNL1       -0.3788
     51 H          61.3863   89.7372   16.4808 H       1  UNL1        0.2106
     52 C          64.5185   84.9494   14.3840 C.3     1  UNL1        0.0355
     53 C          63.7750   83.7189   13.9563 C.ar    1  UNL1       -0.0217
     54 C          64.2973   82.8817   12.8266 C.ar    1  UNL1       -0.0043
     55 C          63.5537   81.6511   12.3989 C.ar    1  UNL1       -0.0003
     56 C          62.2879   81.2577   13.1010 C.ar    1  UNL1       -0.0000
     57 C          61.7656   82.0949   14.2308 C.ar    1  UNL1       -0.0003
     58 C          62.5091   83.3255   14.6584 C.ar    1  UNL1       -0.0043
@<TRIPOS>BOND
     1    16    17    1
     2    17    18    1
     3    17    19    1
     4    19    20   ar
     5    20    21   ar
     6    21    22   ar
     7    22    24    1
     8    24    25   ar
     9    25    26   ar
    10    26    27   ar
    11    27    28   ar
    12    28    29   ar
    13    22    23   ar
    14    17     1    1
    15     1     2    1
    16     2     3    1
    17     3     4    1
    18     4    30    1
    19    30    31    1
    20    31    32    1
    21    31    34    1
    22    35    34    1
    23    35    52    1
    24    52    53    1
    25    53    54   ar
    26    54    55   ar
    27    55    56   ar
    28    56    57   ar
    29    57    58   ar
    30    35    36    1
    31    36    37    2
    32    36    38   am
    33    40    38    1
    34    40    41    1
    35    41    42   ar
    36    42    43   ar
    37    43    44   ar
    38    44    45   ar
    39    45    46   ar
    40    46    47    1
    41    47    48    1
    42    48    49    1
    43    49    50    1
    44     4     5    1
    45     5     7    1
    46     7     8    2
    47     7     9   am
    48     9    11    1
    49    11    12    1
    50    12    13    1
    51    12    14    1
    52    12    15    1
    53     5     6    1
    54    23    19   ar
    55     6     1    1
    56    29    24   ar
    57    58    53   ar
    58    49    40    1
    59    46    41   ar
    60    32    33    1
    61    38    39    1
    62    50    51    1
    63     9    10    1
@<TRIPOS>MOLECULE
*****
 58 63 0 0 0
SMALL
GASTEIGER

@<TRIPOS>ATOM
      1 N          59.7826   89.3972    7.3616 N.3     1  UNL1       -0.2650
      2 C          59.3787   87.9528    7.3840 C.3     1  UNL1        0.0900
      3 C          59.7145   87.0983    8.5702 C.3     1  UNL1        0.0901
      4 N          60.4544   87.6882    9.7340 N.3     1  UNL1       -0.2621
      5 C          60.8583   89.1327    9.7117 C.3     1  UNL1        0.1510
      6 C          60.5225   89.9872    8.5255 C.3     1  UNL1        0.0980
      7 C          61.5982   89.7226   10.8756 C.2     1  UNL1        0.2386
      8 O          61.0145   89.6403   12.2549 O.2     1  UNL1       -0.2736
      9 N          62.9217   90.3949   10.6602 N.am    1  UNL1       -0.2961
     10 H          63.3048   90.4489    9.7549 H       1  UNL1        0.1497
     11 C          63.6615   90.9848   11.8241 C.3     1  UNL1        0.1939
     12 C          64.7091   92.0332   11.5933 C.3     1  UNL1        0.4154
     13 F          65.7568   93.0816   11.3625 F       1  UNL1       -0.1682
     14 F          64.2642   92.1638   10.1668 F       1  UNL1       -0.1682
     15 F          65.1541   91.9025   13.0198 F       1  UNL1       -0.1682
     16 C          57.9867   89.9945    6.4036 C.3     1  UNL1        0.0255
     17 C          59.4468   90.2517    6.1754 C.3     1  UNL1        0.1147
     18 C          60.9068   90.5088    5.9472 C.3     1  UNL1        0.0255
     19 C          59.1109   91.1061    4.9892 C.ar    1  UNL1        0.2186
     20 N          57.7308   91.4531    4.5150 N.ar    1  UNL1       -0.2093
     21 C          57.8631   92.3251    3.3016 C.ar    1  UNL1        0.1407
     22 C          59.3250   92.5171    3.0260 C.ar    1  UNL1        0.1834
     23 O          60.0963   91.7637    4.0690 O.2     1  UNL1       -0.4355
     24 C          59.9126   93.3212    1.9044 C.ar    1  UNL1        0.1173
     25 C          60.3282   92.6428    0.6327 C.ar    1  UNL1        0.0223
     26 C          60.9158   93.4469   -0.4889 C.ar    1  UNL1        0.0032
     27 C          61.0878   94.9294   -0.3389 C.ar    1  UNL1        0.0207
     28 C          60.6722   95.6078    0.9328 C.ar    1  UNL1        0.0989
     29 N          60.0846   94.8037    2.0544 N.ar    1  UNL1       -0.2407
     30 C          60.7902   86.8338   10.9202 C.3     1  UNL1        0.1021
     31 C          62.1770   86.2850   11.0807 C.3     1  UNL1        0.1269
     32 O          62.6426   85.1568   10.2089 O.3     1  UNL1       -0.3830
     33 H          61.9306   84.9027    9.6011 H       1  UNL1        0.2104
     34 C          63.0981   86.8646   12.1130 C.3     1  UNL1        0.0401
     35 C          63.5179   86.0380   13.2922 C.3     1  UNL1        0.0833
     36 C          62.9731   84.6516   13.4684 C.2     1  UNL1        0.2226
     37 O          61.6633   84.4440   14.1695 O.2     1  UNL1       -0.2751
     38 N          63.7380   83.4728   12.9436 N.am    1  UNL1       -0.2999
     39 H          64.5976   83.6091   12.4835 H       1  UNL1        0.1498
     40 C          63.1932   82.0864   13.1198 C.3     1  UNL1        0.1278
     41 C          63.0917   81.1650   11.9406 C.ar    1  UNL1        0.0320
     42 C          63.5351   81.6299   10.5851 C.ar    1  UNL1        0.0004
     43 C          63.4336   80.7084    9.4059 C.ar    1  UNL1       -0.0001
     44 C          62.8888   79.3220    9.5821 C.ar    1  UNL1        0.0031
     45 C          62.4454   78.8571   10.9376 C.ar    1  UNL1        0.0366
     46 C          62.5469   79.7786   12.1168 C.ar    1  UNL1        0.1362
     47 O          62.1035   79.3136   13.4723 O.3     1  UNL1       -0.4730
     48 C          62.2050   80.2351   14.6515 C.3     1  UNL1        0.2364
     49 C          62.7498   81.6215   14.4752 C.3     1  UNL1        0.1762
     50 O          62.8513   82.5430   15.6545 O.3     1  UNL1       -0.3788
     51 H          62.5253   82.0899   16.4479 H       1  UNL1        0.2106
     52 C          64.4827   86.5978   14.2952 C.3     1  UNL1        0.0355
     53 C          64.1041   87.7982   15.1111 C.ar    1  UNL1       -0.0217
     54 C          63.3813   87.6221   16.4136 C.ar    1  UNL1       -0.0043
     55 C          63.0027   88.8226   17.2294 C.ar    1  UNL1       -0.0003
     56 C          63.3468   90.1990   16.7428 C.ar    1  UNL1       -0.0000
     57 C          64.0696   90.3751   15.4403 C.ar    1  UNL1       -0.0003
     58 C          64.4483   89.1747   14.6244 C.ar    1  UNL1       -0.0043
@<TRIPOS>BOND
     1    16    17    1
     2    17    18    1
     3    17    19    1
     4    19    20   ar
     5    20    21   ar
     6    21    22   ar
     7    22    24    1
     8    24    25   ar
     9    25    26   ar
    10    26    27   ar
    11    27    28   ar
    12    28    29   ar
    13    22    23   ar
    14    17     1    1
    15     1     2    1
    16     2     3    1
    17     3     4    1
    18     4    30    1
    19    30    31    1
    20    31    32    1
    21    31    34    1
    22    35    34    1
    23    35    52    1
    24    52    53    1
    25    53    54   ar
    26    54    55   ar
    27    55    56   ar
    28    56    57   ar
    29    57    58   ar
    30    35    36    1
    31    36    37    2
    32    36    38   am
    33    40    38    1
    34    40    41    1
    35    41    42   ar
    36    42    43   ar
    37    43    44   ar
    38    44    45   ar
    39    45    46   ar
    40    46    47    1
    41    47    48    1
    42    48    49    1
    43    49    50    1
    44     4     5    1
    45     5     7    1
    46     7     8    2
    47     7     9   am
    48     9    11    1
    49    11    12    1
    50    12    13    1
    51    12    14    1
    52    12    15    1
    53     5     6    1
    54    23    19   ar
    55     6     1    1
    56    29    24   ar
    57    58    53   ar
    58    49    40    1
    59    46    41   ar
    60    32    33    1
    61    38    39    1
    62    50    51    1
    63     9    10    1
@<TRIPOS>MOLECULE
*****
 58 63 0 0 0
SMALL
GASTEIGER

@<TRIPOS>ATOM
      1 N          60.0255   89.9329    6.5121 N.3     1  UNL1       -0.2650
      2 C          59.4597   88.5439    6.4904 C.3     1  UNL1        0.0900
      3 C          59.5353   87.6840    7.7172 C.3     1  UNL1        0.0901
      4 N          60.1768   88.2131    8.9656 N.3     1  UNL1       -0.2621
      5 C          60.7426   89.6022    8.9873 C.3     1  UNL1        0.1510
      6 C          60.6670   90.4621    7.7606 C.3     1  UNL1        0.0980
      7 C          61.3840   90.1313   10.2357 C.2     1  UNL1        0.2386
      8 O          60.6168   90.1467   11.5245 O.2     1  UNL1       -0.2736
      9 N          62.7928   90.6450   10.1953 N.am    1  UNL1       -0.2961
     10 H          63.2964   90.6349    9.3495 H       1  UNL1        0.1497
     11 C          63.4342   91.1741   11.4438 C.3     1  UNL1        0.1939
     12 C          64.7015   91.9718   11.3557 C.3     1  UNL1        0.4154
     13 F          65.9688   92.7695   11.2676 F       1  UNL1       -0.1682
     14 F          65.2095   91.3019   12.5979 F       1  UNL1       -0.1682
     15 F          64.1934   92.6416   10.1134 F       1  UNL1       -0.1682
     16 C          58.4646   90.9101    5.4591 C.3     1  UNL1        0.0255
     17 C          59.9499   90.7928    5.2854 C.3     1  UNL1        0.1147
     18 C          61.4352   90.6756    5.1116 C.3     1  UNL1        0.0255
     19 C          59.8743   91.6527    4.0587 C.ar    1  UNL1        0.2186
     20 N          58.6285   92.2546    3.4793 N.ar    1  UNL1       -0.2093
     21 C          59.0154   93.0356    2.2584 C.ar    1  UNL1        0.1407
     22 C          60.5004   92.9164    2.0833 C.ar    1  UNL1        0.1834
     23 O          61.0313   92.0617    3.1959 O.2     1  UNL1       -0.4355
     24 C          61.3121   93.5420    0.9880 C.ar    1  UNL1        0.1173
     25 C          61.2817   92.9598   -0.3941 C.ar    1  UNL1        0.0223
     26 C          62.0934   93.5854   -1.4895 C.ar    1  UNL1        0.0032
     27 C          62.9354   94.7931   -1.2027 C.ar    1  UNL1        0.0207
     28 C          62.9658   95.3753    0.1794 C.ar    1  UNL1        0.0989
     29 N          62.1541   94.7497    1.2747 N.ar    1  UNL1       -0.2407
     30 C          60.2524   87.3532   10.1923 C.3     1  UNL1        0.1021
     31 C          61.5871   86.9347   10.7337 C.3     1  UNL1        0.1269
     32 O          62.4254   87.9134   11.5014 O.3     1  UNL1       -0.3830
     33 H          61.9614   88.7635   11.5560 H       1  UNL1        0.2104
     34 C          62.0837   85.5375   10.5074 C.3     1  UNL1        0.0401
     35 C          62.8330   84.8228   11.5927 C.3     1  UNL1        0.0833
     36 C          62.6495   85.2306   13.0245 C.2     1  UNL1        0.2226
     37 O          61.4469   84.7627   13.7893 O.2     1  UNL1       -0.2751
     38 N          63.6685   86.1061   13.6915 N.am    1  UNL1       -0.2999
     39 H          64.4578   86.4132   13.1895 H       1  UNL1        0.1498
     40 C          63.4850   86.5138   15.1233 C.3     1  UNL1        0.1278
     41 C          63.5170   87.9654   15.4998 C.ar    1  UNL1        0.0320
     42 C          63.7326   89.0094   14.4444 C.ar    1  UNL1        0.0004
     43 C          63.7646   90.4610   14.8209 C.ar    1  UNL1       -0.0001
     44 C          63.5811   90.8687   16.2527 C.ar    1  UNL1        0.0031
     45 C          63.3656   89.8248   17.3081 C.ar    1  UNL1        0.0366
     46 C          63.3335   88.3731   16.9316 C.ar    1  UNL1        0.1362
     47 O          63.1180   87.3292   17.9870 O.3     1  UNL1       -0.4730
     48 C          63.0859   85.8776   17.6105 C.3     1  UNL1        0.2364
     49 C          63.2694   85.4699   16.1786 C.3     1  UNL1        0.1762
     50 O          63.2374   84.0182   15.8022 O.3     1  UNL1       -0.3788
     51 H          63.0900   83.4814   16.5965 H       1  UNL1        0.2106
     52 C          63.7658   83.7004   11.2461 C.3     1  UNL1        0.0355
     53 C          63.3796   82.2833   11.5499 C.ar    1  UNL1       -0.0217
     54 C          63.0974   81.8694   12.9638 C.ar    1  UNL1       -0.0043
     55 C          62.7111   80.4522   13.2676 C.ar    1  UNL1       -0.0003
     56 C          62.6070   79.4488   12.1575 C.ar    1  UNL1       -0.0000
     57 C          62.8892   79.8626   10.7436 C.ar    1  UNL1       -0.0003
     58 C          63.2754   81.2798   10.4398 C.ar    1  UNL1       -0.0043
@<TRIPOS>BOND
     1    16    17    1
     2    17    18    1
     3    17    19    1
     4    19    20   ar
     5    20    21   ar
     6    21    22   ar
     7    22    24    1
     8    24    25   ar
     9    25    26   ar
    10    26    27   ar
    11    27    28   ar
    12    28    29   ar
    13    22    23   ar
    14    17     1    1
    15     1     2    1
    16     2     3    1
    17     3     4    1
    18     4    30    1
    19    30    31    1
    20    31    32    1
    21    31    34    1
    22    35    34    1
    23    35    52    1
    24    52    53    1
    25    53    54   ar
    26    54    55   ar
    27    55    56   ar
    28    56    57   ar
    29    57    58   ar
    30    35    36    1
    31    36    37    2
    32    36    38   am
    33    40    38    1
    34    40    41    1
    35    41    42   ar
    36    42    43   ar
    37    43    44   ar
    38    44    45   ar
    39    45    46   ar
    40    46    47    1
    41    47    48    1
    42    48    49    1
    43    49    50    1
    44     4     5    1
    45     5     7    1
    46     7     8    2
    47     7     9   am
    48     9    11    1
    49    11    12    1
    50    12    13    1
    51    12    14    1
    52    12    15    1
    53     5     6    1
    54    23    19   ar
    55     6     1    1
    56    29    24   ar
    57    58    53   ar
    58    49    40    1
    59    46    41   ar
    60    32    33    1
    61    38    39    1
    62    50    51    1
    63     9    10    1
@<TRIPOS>MOLECULE
*****
 58 63 0 0 0
SMALL
GASTEIGER

@<TRIPOS>ATOM
      1 N          59.9737   90.6339    5.6457 N.3     1  UNL1       -0.2650
      2 C          58.6681   91.2433    5.2285 C.3     1  UNL1        0.0900
      3 C          58.6134   92.1607    4.0430 C.3     1  UNL1        0.0901
      4 N          59.8643   92.4686    3.2746 N.3     1  UNL1       -0.2621
      5 C          61.1700   91.8592    3.6917 C.3     1  UNL1        0.1510
      6 C          61.2247   90.9419    4.8773 C.3     1  UNL1        0.0980
      7 C          62.4208   92.1672    2.9234 C.2     1  UNL1        0.2386
      8 O          63.3419   91.0565    2.5135 O.2     1  UNL1       -0.2736
      9 N          62.7507   93.5859    2.5648 N.am    1  UNL1       -0.2961
     10 H          62.1462   94.3149    2.8338 H       1  UNL1        0.1497
     11 C          64.0016   93.8938    1.7964 C.3     1  UNL1        0.1939
     12 C          64.1920   95.2508    1.1863 C.3     1  UNL1        0.4154
     13 F          64.3824   96.6079    0.5763 F       1  UNL1       -0.1682
     14 F          62.9131   95.7144    1.8183 F       1  UNL1       -0.1682
     15 F          65.4709   94.7872    0.5544 F       1  UNL1       -0.1682
     16 C          61.2230   90.4599    7.3512 C.3     1  UNL1        0.0255
     17 C          60.0284   89.7166    6.8312 C.3     1  UNL1        0.1147
     18 C          58.8339   88.9732    6.3111 C.3     1  UNL1        0.0255
     19 C          60.0831   88.7992    8.0167 C.ar    1  UNL1        0.2186
     20 N          58.9580   87.9473    8.5250 N.ar    1  UNL1       -0.2093
     21 C          59.4521   87.1943    9.7246 C.ar    1  UNL1        0.1407
     22 C          60.8826   87.5808    9.9576 C.ar    1  UNL1        0.1834
     23 O          61.2727   88.5727    8.9021 O.2     1  UNL1       -0.4355
     24 C          61.7677   87.0658   11.0537 C.ar    1  UNL1        0.1173
     25 C          61.8403   85.5932   11.3296 C.ar    1  UNL1        0.0223
     26 C          62.7254   85.0782   12.4256 C.ar    1  UNL1        0.0032
     27 C          63.5379   86.0359   13.2458 C.ar    1  UNL1        0.0207
     28 C          63.4653   87.5085   12.9699 C.ar    1  UNL1        0.0989
     29 N          62.5802   88.0235   11.8738 N.ar    1  UNL1       -0.2407
     30 C          59.8096   93.3860    2.0891 C.3     1  UNL1        0.1021
     31 C          59.4856   92.8379    0.7310 C.3     1  UNL1        0.1269
     32 O          58.0684   92.8411    0.2395 O.3     1  UNL1       -0.3830
     33 H          57.4922   93.2288    0.9167 H       1  UNL1        0.2104
     34 C          60.5787   92.2865   -0.1357 C.3     1  UNL1        0.0401
     35 C          61.2694   93.1746   -1.1276 C.3     1  UNL1        0.0833
     36 C          60.4626   94.0561   -2.0343 C.2     1  UNL1        0.2226
     37 O          60.5170   95.5467   -1.8743 O.2     1  UNL1       -0.2751
     38 N          59.6015   93.4472   -3.1008 N.am    1  UNL1       -0.2999
     39 H          59.5658   92.4690   -3.2058 H       1  UNL1        0.1498
     40 C          58.7947   94.3287   -4.0075 C.3     1  UNL1        0.1278
     41 C          57.3882   94.6971   -3.6386 C.ar    1  UNL1        0.0320
     42 C          56.7885   94.1839   -2.3631 C.ar    1  UNL1        0.0004
     43 C          55.3820   94.5523   -1.9942 C.ar    1  UNL1       -0.0001
     44 C          54.5752   95.4338   -2.9009 C.ar    1  UNL1        0.0031
     45 C          55.1749   95.9469   -4.1764 C.ar    1  UNL1        0.0366
     46 C          56.5815   95.5786   -4.5453 C.ar    1  UNL1        0.1362
     47 O          57.1811   96.0917   -5.8208 O.3     1  UNL1       -0.4730
     48 C          58.5876   95.7234   -6.1897 C.3     1  UNL1        0.2364
     49 C          59.3944   94.8419   -5.2830 C.3     1  UNL1        0.1762
     50 O          60.8009   94.4735   -5.6519 O.3     1  UNL1       -0.3788
     51 H          61.0312   94.8851   -6.4996 H       1  UNL1        0.2106
     52 C          62.7670   93.1813   -1.2129 C.3     1  UNL1        0.0355
     53 C          63.4440   93.6043   -2.4828 C.ar    1  UNL1       -0.0217
     54 C          64.0490   94.9727   -2.5904 C.ar    1  UNL1       -0.0043
     55 C          64.7260   95.3957   -3.8604 C.ar    1  UNL1       -0.0003
     56 C          64.7980   94.4503   -5.0227 C.ar    1  UNL1       -0.0000
     57 C          64.1931   93.0820   -4.9151 C.ar    1  UNL1       -0.0003
     58 C          63.5161   92.6589   -3.6452 C.ar    1  UNL1       -0.0043
@<TRIPOS>BOND
     1    16    17    1
     2    17    18    1
     3    17    19    1
     4    19    20   ar
     5    20    21   ar
     6    21    22   ar
     7    22    24    1
     8    24    25   ar
     9    25    26   ar
    10    26    27   ar
    11    27    28   ar
    12    28    29   ar
    13    22    23   ar
    14    17     1    1
    15     1     2    1
    16     2     3    1
    17     3     4    1
    18     4    30    1
    19    30    31    1
    20    31    32    1
    21    31    34    1
    22    35    34    1
    23    35    52    1
    24    52    53    1
    25    53    54   ar
    26    54    55   ar
    27    55    56   ar
    28    56    57   ar
    29    57    58   ar
    30    35    36    1
    31    36    37    2
    32    36    38   am
    33    40    38    1
    34    40    41    1
    35    41    42   ar
    36    42    43   ar
    37    43    44   ar
    38    44    45   ar
    39    45    46   ar
    40    46    47    1
    41    47    48    1
    42    48    49    1
    43    49    50    1
    44     4     5    1
    45     5     7    1
    46     7     8    2
    47     7     9   am
    48     9    11    1
    49    11    12    1
    50    12    13    1
    51    12    14    1
    52    12    15    1
    53     5     6    1
    54    23    19   ar
    55     6     1    1
    56    29    24   ar
    57    58    53   ar
    58    49    40    1
    59    46    41   ar
    60    32    33    1
    61    38    39    1
    62    50    51    1
    63     9    10    1
@<TRIPOS>MOLECULE
*****
 58 63 0 0 0
SMALL
GASTEIGER

@<TRIPOS>ATOM
      1 N          59.9136   91.6351    4.5740 N.3     1  UNL1       -0.2650
      2 C          58.8752   92.7163    4.5218 C.3     1  UNL1        0.0900
      3 C          59.0071   93.8356    3.5319 C.3     1  UNL1        0.0901
      4 N          60.1773   93.8737    2.5943 N.3     1  UNL1       -0.2621
      5 C          61.2157   92.7925    2.6465 C.3     1  UNL1        0.1510
      6 C          61.0839   91.6732    3.6364 C.3     1  UNL1        0.0980
      7 C          62.3859   92.8306    1.7089 C.2     1  UNL1        0.2386
      8 O          62.2509   92.2847    0.3183 O.2     1  UNL1       -0.2736
      9 N          63.6913   93.4146    2.1619 N.am    1  UNL1       -0.2961
     10 H          63.7799   93.7729    3.0746 H       1  UNL1        0.1497
     11 C          64.8615   93.4527    1.2243 C.3     1  UNL1        0.1939
     12 C          65.1926   94.7175    0.4892 C.3     1  UNL1        0.4154
     13 F          65.5237   95.9824   -0.2460 F       1  UNL1       -0.1682
     14 F          64.9972   94.0088   -0.8182 F       1  UNL1       -0.1682
     15 F          65.3879   95.4263    1.7967 F       1  UNL1       -0.1682
     16 C          61.2716   90.3411    5.5647 C.3     1  UNL1        0.0255
     17 C          59.7818   90.5159    5.5639 C.3     1  UNL1        0.1147
     18 C          58.2920   90.6906    5.5631 C.3     1  UNL1        0.0255
     19 C          59.6500   89.3966    6.5538 C.ar    1  UNL1        0.2186
     20 N          58.4087   88.5983    6.8220 N.ar    1  UNL1       -0.2093
     21 C          58.7279   87.5874    7.8832 C.ar    1  UNL1        0.1407
     22 C          60.1664   87.7610    8.2710 C.ar    1  UNL1        0.1834
     23 O          60.7364   88.8791    7.4494 O.2     1  UNL1       -0.4355
     24 C          60.9054   86.9575    9.2997 C.ar    1  UNL1        0.1173
     25 C          61.9607   85.9808    8.8725 C.ar    1  UNL1        0.0223
     26 C          62.6996   85.1773    9.9012 C.ar    1  UNL1        0.0032
     27 C          62.3833   85.3505   11.3572 C.ar    1  UNL1        0.0207
     28 C          61.3281   86.3272   11.7844 C.ar    1  UNL1        0.0989
     29 N          60.5891   87.1307   10.7557 N.ar    1  UNL1       -0.2407
     30 C          60.3091   94.9929    1.6044 C.3     1  UNL1        0.1021
     31 C          59.4163   95.0380    0.3999 C.3     1  UNL1        0.1269
     32 O          58.7413   96.3208    0.0142 O.3     1  UNL1       -0.3830
     33 H          58.9868   97.0171    0.6433 H       1  UNL1        0.2104
     34 C          59.1984   93.8002   -0.4189 C.3     1  UNL1        0.0401
     35 C          59.3848   93.8426   -1.9066 C.3     1  UNL1        0.0833
     36 C          58.3642   94.5212   -2.7713 C.2     1  UNL1        0.2226
     37 O          58.5034   95.9800   -3.0918 O.2     1  UNL1       -0.2751
     38 N          57.2043   93.7411   -3.3155 N.am    1  UNL1       -0.2999
     39 H          57.1130   92.7837   -3.1051 H       1  UNL1        0.1498
     40 C          56.1836   94.4197   -4.1802 C.3     1  UNL1        0.1278
     41 C          54.9932   95.0840   -3.5547 C.ar    1  UNL1        0.0320
     42 C          54.8233   95.0698   -2.0643 C.ar    1  UNL1        0.0004
     43 C          53.6328   95.7341   -1.4388 C.ar    1  UNL1       -0.0001
     44 C          52.6121   96.4127   -2.3035 C.ar    1  UNL1        0.0031
     45 C          52.7819   96.4270   -3.7937 C.ar    1  UNL1        0.0366
     46 C          53.9725   95.7626   -4.4194 C.ar    1  UNL1        0.1362
     47 O          54.1423   95.7769   -5.9096 O.3     1  UNL1       -0.4730
     48 C          55.3328   95.1126   -6.5352 C.3     1  UNL1        0.2364
     49 C          56.3535   94.4340   -5.6705 C.3     1  UNL1        0.1762
     50 O          57.5440   93.7696   -6.2961 O.3     1  UNL1       -0.3788
     51 H          57.5011   93.8703   -7.2599 H       1  UNL1        0.2106
     52 C          60.5920   93.2064   -2.5297 C.3     1  UNL1        0.0355
     53 C          61.8058   94.0350   -2.8296 C.ar    1  UNL1       -0.0217
     54 C          61.9157   95.4286   -2.2859 C.ar    1  UNL1       -0.0043
     55 C          63.1296   96.2572   -2.5858 C.ar    1  UNL1       -0.0003
     56 C          64.2336   95.6921   -3.4295 C.ar    1  UNL1       -0.0000
     57 C          64.1237   94.2985   -3.9733 C.ar    1  UNL1       -0.0003
     58 C          62.9099   93.4699   -3.6734 C.ar    1  UNL1       -0.0043
@<TRIPOS>BOND
     1    16    17    1
     2    17    18    1
     3    17    19    1
     4    19    20   ar
     5    20    21   ar
     6    21    22   ar
     7    22    24    1
     8    24    25   ar
     9    25    26   ar
    10    26    27   ar
    11    27    28   ar
    12    28    29   ar
    13    22    23   ar
    14    17     1    1
    15     1     2    1
    16     2     3    1
    17     3     4    1
    18     4    30    1
    19    30    31    1
    20    31    32    1
    21    31    34    1
    22    35    34    1
    23    35    52    1
    24    52    53    1
    25    53    54   ar
    26    54    55   ar
    27    55    56   ar
    28    56    57   ar
    29    57    58   ar
    30    35    36    1
    31    36    37    2
    32    36    38   am
    33    40    38    1
    34    40    41    1
    35    41    42   ar
    36    42    43   ar
    37    43    44   ar
    38    44    45   ar
    39    45    46   ar
    40    46    47    1
    41    47    48    1
    42    48    49    1
    43    49    50    1
    44     4     5    1
    45     5     7    1
    46     7     8    2
    47     7     9   am
    48     9    11    1
    49    11    12    1
    50    12    13    1
    51    12    14    1
    52    12    15    1
    53     5     6    1
    54    23    19   ar
    55     6     1    1
    56    29    24   ar
    57    58    53   ar
    58    49    40    1
    59    46    41   ar
    60    32    33    1
    61    38    39    1
    62    50    51    1
    63     9    10    1
@<TRIPOS>MOLECULE
*****
 58 63 0 0 0
SMALL
GASTEIGER

@<TRIPOS>ATOM
      1 N          60.0010   90.6580    5.6897 N.3     1  UNL1       -0.2650
      2 C          58.6816   91.2510    5.2929 C.3     1  UNL1        0.0900
      3 C          58.5932   92.1502    4.0956 C.3     1  UNL1        0.0901
      4 N          59.8241   92.4564    3.2950 N.3     1  UNL1       -0.2621
      5 C          61.1436   91.8633    3.6918 C.3     1  UNL1        0.1510
      6 C          61.2320   90.9641    4.8891 C.3     1  UNL1        0.0980
      7 C          62.3746   92.1695    2.8912 C.2     1  UNL1        0.2386
      8 O          63.3286   91.0691    2.5320 O.2     1  UNL1       -0.2736
      9 N          62.6516   93.5761    2.4498 N.am    1  UNL1       -0.2961
     10 H          62.0254   94.2984    2.6855 H       1  UNL1        0.1497
     11 C          63.8825   93.8823    1.6492 C.3     1  UNL1        0.1939
     12 C          64.0280   95.2156    0.9777 C.3     1  UNL1        0.4154
     13 F          64.1736   96.5491    0.3062 F       1  UNL1       -0.1682
     14 F          65.2786   94.7383    0.3009 F       1  UNL1       -0.1682
     15 F          62.7775   95.6930    1.6546 F       1  UNL1       -0.1682
     16 C          61.2761   90.5324    7.3804 C.3     1  UNL1        0.0255
     17 C          60.0894   89.7588    6.8870 C.3     1  UNL1        0.1147
     18 C          58.9028   88.9852    6.3937 C.3     1  UNL1        0.0255
     19 C          60.1778   88.8596    8.0844 C.ar    1  UNL1        0.2186
     20 N          59.2244   88.8366    9.2421 N.ar    1  UNL1       -0.2093
     21 C          59.6925   87.7883   10.2075 C.ar    1  UNL1        0.1407
     22 C          60.9353   87.1634    9.6463 C.ar    1  UNL1        0.1834
     23 O          61.2354   87.8254    8.3342 O.2     1  UNL1       -0.4355
     24 C          61.7374   86.0686   10.2852 C.ar    1  UNL1        0.1173
     25 C          62.6114   85.1888    9.4412 C.ar    1  UNL1        0.0223
     26 C          63.4134   84.0940   10.0801 C.ar    1  UNL1        0.0032
     27 C          63.3416   83.8790   11.5628 C.ar    1  UNL1        0.0207
     28 C          62.4676   84.7588   12.4068 C.ar    1  UNL1        0.0989
     29 N          61.6655   85.8536   11.7679 N.ar    1  UNL1       -0.2407
     30 C          59.7357   93.3556    2.0977 C.3     1  UNL1        0.1021
     31 C          59.4626   92.7747    0.7420 C.3     1  UNL1        0.1269
     32 O          58.0783   92.3196    0.3861 O.3     1  UNL1       -0.3830
     33 H          57.4850   92.4703    1.1385 H       1  UNL1        0.2104
     34 C          60.5737   92.6488   -0.2578 C.3     1  UNL1        0.0401
     35 C          60.7592   93.7021   -1.3095 C.3     1  UNL1        0.0833
     36 C          59.5629   94.3437   -1.9476 C.2     1  UNL1        0.2226
     37 O          59.5210   95.8312   -2.1367 O.2     1  UNL1       -0.2751
     38 N          58.4085   93.4978   -2.3967 N.am    1  UNL1       -0.2999
     39 H          58.4359   92.5215   -2.2726 H       1  UNL1        0.1498
     40 C          57.2121   94.1393   -3.0349 C.3     1  UNL1        0.1278
     41 C          56.9122   93.8924   -4.4837 C.ar    1  UNL1        0.0320
     42 C          57.8086   93.0039   -5.2944 C.ar    1  UNL1        0.0004
     43 C          57.5087   92.7570   -6.7432 C.ar    1  UNL1       -0.0001
     44 C          56.3124   93.3986   -7.3814 C.ar    1  UNL1        0.0031
     45 C          55.4160   94.2870   -6.5707 C.ar    1  UNL1        0.0366
     46 C          55.7159   94.5339   -5.1219 C.ar    1  UNL1        0.1362
     47 O          54.8195   95.4223   -4.3113 O.3     1  UNL1       -0.4730
     48 C          55.1194   95.6692   -2.8625 C.3     1  UNL1        0.2364
     49 C          56.3157   95.0277   -2.2243 C.3     1  UNL1        0.1762
     50 O          56.6156   95.2747   -0.7754 O.3     1  UNL1       -0.3788
     51 H          55.9436   95.8664   -0.4024 H       1  UNL1        0.2106
     52 C          62.1411   94.1140   -1.7231 C.3     1  UNL1        0.0355
     53 C          62.6462   93.7742   -3.0939 C.ar    1  UNL1       -0.0217
     54 C          62.1044   94.4948   -4.2928 C.ar    1  UNL1       -0.0043
     55 C          62.6096   94.1550   -5.6637 C.ar    1  UNL1       -0.0003
     56 C          63.6564   93.0946   -5.8358 C.ar    1  UNL1       -0.0000
     57 C          64.1982   92.3740   -4.6369 C.ar    1  UNL1       -0.0003
     58 C          63.6931   92.7138   -3.2660 C.ar    1  UNL1       -0.0043
@<TRIPOS>BOND
     1    16    17    1
     2    17    18    1
     3    17    19    1
     4    19    20   ar
     5    20    21   ar
     6    21    22   ar
     7    22    24    1
     8    24    25   ar
     9    25    26   ar
    10    26    27   ar
    11    27    28   ar
    12    28    29   ar
    13    22    23   ar
    14    17     1    1
    15     1     2    1
    16     2     3    1
    17     3     4    1
    18     4    30    1
    19    30    31    1
    20    31    32    1
    21    31    34    1
    22    35    34    1
    23    35    52    1
    24    52    53    1
    25    53    54   ar
    26    54    55   ar
    27    55    56   ar
    28    56    57   ar
    29    57    58   ar
    30    35    36    1
    31    36    37    2
    32    36    38   am
    33    40    38    1
    34    40    41    1
    35    41    42   ar
    36    42    43   ar
    37    43    44   ar
    38    44    45   ar
    39    45    46   ar
    40    46    47    1
    41    47    48    1
    42    48    49    1
    43    49    50    1
    44     4     5    1
    45     5     7    1
    46     7     8    2
    47     7     9   am
    48     9    11    1
    49    11    12    1
    50    12    13    1
    51    12    14    1
    52    12    15    1
    53     5     6    1
    54    23    19   ar
    55     6     1    1
    56    29    24   ar
    57    58    53   ar
    58    49    40    1
    59    46    41   ar
    60    32    33    1
    61    38    39    1
    62    50    51    1
    63     9    10    1
@<TRIPOS>MOLECULE
*****
 58 63 0 0 0
SMALL
GASTEIGER

@<TRIPOS>ATOM
      1 N          59.7523   91.1098    5.0502 N.3     1  UNL1       -0.2650
      2 C          58.5352   91.9613    4.8415 C.3     1  UNL1        0.0900
      3 C          58.5120   92.9792    3.7399 C.3     1  UNL1        0.0901
      4 N          59.7057   93.1455    2.8471 N.3     1  UNL1       -0.2621
      5 C          60.9229   92.2940    3.0558 C.3     1  UNL1        0.1510
      6 C          60.9462   91.2761    4.1573 C.3     1  UNL1        0.0980
      7 C          62.1167   92.4603    2.1630 C.2     1  UNL1        0.2386
      8 O          62.0507   92.0155    0.7319 O.2     1  UNL1       -0.2736
      9 N          63.3765   93.0714    2.7011 N.am    1  UNL1       -0.2961
     10 H          63.4197   93.3633    3.6404 H       1  UNL1        0.1497
     11 C          64.5702   93.2377    1.8083 C.3     1  UNL1        0.1939
     12 C          64.9040   94.5877    1.2461 C.3     1  UNL1        0.4154
     13 F          65.2378   95.9377    0.6839 F       1  UNL1       -0.1682
     14 F          64.5928   94.0899   -0.1341 F       1  UNL1       -0.1682
     15 F          65.2152   95.0855    2.6264 F       1  UNL1       -0.1682
     16 C          61.2644   90.2408    6.2578 C.3     1  UNL1        0.0255
     17 C          59.7756   90.0920    6.1518 C.3     1  UNL1        0.1147
     18 C          58.2868   89.9431    6.0457 C.3     1  UNL1        0.0255
     19 C          59.7989   89.0741    7.2533 C.ar    1  UNL1        0.2186
     20 N          58.7056   88.0992    7.5762 N.ar    1  UNL1       -0.2093
     21 C          59.1506   87.2750    8.7479 C.ar    1  UNL1        0.1407
     22 C          60.5189   87.7406    9.1491 C.ar    1  UNL1        0.1834
     23 O          60.9196   88.8525    8.2255 O.2     1  UNL1       -0.4355
     24 C          61.3420   87.1908   10.2761 C.ar    1  UNL1        0.1173
     25 C          61.4650   85.7073   10.4609 C.ar    1  UNL1        0.0223
     26 C          62.2881   85.1575   11.5879 C.ar    1  UNL1        0.0032
     27 C          62.9882   86.0912   12.5302 C.ar    1  UNL1        0.0207
     28 C          62.8653   87.5747   12.3454 C.ar    1  UNL1        0.0989
     29 N          62.0421   88.1245   11.2184 N.ar    1  UNL1       -0.2407
     30 C          59.6825   94.1634    1.7455 C.3     1  UNL1        0.1021
     31 C          59.0493   93.8280    0.4277 C.3     1  UNL1        0.1269
     32 O          58.9543   92.3984   -0.0164 O.3     1  UNL1       -0.3830
     33 H          59.3462   91.8232    0.6592 H       1  UNL1        0.2104
     34 C          58.5112   94.9221   -0.4459 C.3     1  UNL1        0.0401
     35 C          58.3319   94.6879   -1.9166 C.3     1  UNL1        0.0833
     36 C          59.5281   94.4468   -2.7890 C.2     1  UNL1        0.2226
     37 O          60.2927   93.1613   -2.6749 O.2     1  UNL1       -0.2751
     38 N          59.9597   95.4911   -3.7754 N.am    1  UNL1       -0.2999
     39 H          59.4579   96.3348   -3.8502 H       1  UNL1        0.1498
     40 C          61.1559   95.2500   -4.6477 C.3     1  UNL1        0.1278
     41 C          62.5268   95.6104   -4.1571 C.ar    1  UNL1        0.0320
     42 C          62.7016   96.2118   -2.7941 C.ar    1  UNL1        0.0004
     43 C          64.0725   96.5721   -2.3035 C.ar    1  UNL1       -0.0001
     44 C          65.2687   96.3310   -3.1759 C.ar    1  UNL1        0.0031
     45 C          65.0939   95.7296   -4.5388 C.ar    1  UNL1        0.0366
     46 C          63.7230   95.3693   -5.0295 C.ar    1  UNL1        0.1362
     47 O          63.5483   94.7678   -6.3925 O.3     1  UNL1       -0.4730
     48 C          62.1773   94.4075   -6.8831 C.3     1  UNL1        0.2364
     49 C          60.9812   94.6486   -6.0107 C.3     1  UNL1        0.1762
     50 O          59.6102   94.2883   -6.5013 O.3     1  UNL1       -0.3788
     51 H          59.6743   93.9140   -7.3939 H       1  UNL1        0.2106
     52 C          56.9564   94.6947   -2.5150 C.3     1  UNL1        0.0355
     53 C          56.5647   93.6398   -3.5067 C.ar    1  UNL1       -0.0217
     54 C          56.4997   92.2016   -3.0856 C.ar    1  UNL1       -0.0043
     55 C          56.1080   91.1466   -4.0774 C.ar    1  UNL1       -0.0003
     56 C          55.7812   91.5298   -5.4903 C.ar    1  UNL1       -0.0000
     57 C          55.8462   92.9680   -5.9114 C.ar    1  UNL1       -0.0003
     58 C          56.2379   94.0230   -4.9197 C.ar    1  UNL1       -0.0043
@<TRIPOS>BOND
     1    16    17    1
     2    17    18    1
     3    17    19    1
     4    19    20   ar
     5    20    21   ar
     6    21    22   ar
     7    22    24    1
     8    24    25   ar
     9    25    26   ar
    10    26    27   ar
    11    27    28   ar
    12    28    29   ar
    13    22    23   ar
    14    17     1    1
    15     1     2    1
    16     2     3    1
    17     3     4    1
    18     4    30    1
    19    30    31    1
    20    31    32    1
    21    31    34    1
    22    35    34    1
    23    35    52    1
    24    52    53    1
    25    53    54   ar
    26    54    55   ar
    27    55    56   ar
    28    56    57   ar
    29    57    58   ar
    30    35    36    1
    31    36    37    2
    32    36    38   am
    33    40    38    1
    34    40    41    1
    35    41    42   ar
    36    42    43   ar
    37    43    44   ar
    38    44    45   ar
    39    45    46   ar
    40    46    47    1
    41    47    48    1
    42    48    49    1
    43    49    50    1
    44     4     5    1
    45     5     7    1
    46     7     8    2
    47     7     9   am
    48     9    11    1
    49    11    12    1
    50    12    13    1
    51    12    14    1
    52    12    15    1
    53     5     6    1
    54    23    19   ar
    55     6     1    1
    56    29    24   ar
    57    58    53   ar
    58    49    40    1
    59    46    41   ar
    60    32    33    1
    61    38    39    1
    62    50    51    1
    63     9    10    1
@<TRIPOS>MOLECULE
*****
 58 63 0 0 0
SMALL
GASTEIGER

@<TRIPOS>ATOM
      1 N          59.8629   90.3993    6.0693 N.3     1  UNL1       -0.2650
      2 C          59.5038   91.0464    7.3740 C.3     1  UNL1        0.0900
      3 C          59.3737   90.2125    8.6140 C.3     1  UNL1        0.0901
      4 N          59.6029   88.7316    8.5494 N.3     1  UNL1       -0.2621
      5 C          59.9620   88.0844    7.2447 C.3     1  UNL1        0.1510
      6 C          60.0921   88.9182    6.0046 C.3     1  UNL1        0.0980
      7 C          60.1912   86.6034    7.1801 C.2     1  UNL1        0.2386
      8 O          59.0222   85.6658    7.1150 O.2     1  UNL1       -0.2736
      9 N          61.5894   86.0601    7.1805 N.am    1  UNL1       -0.2961
     10 H          62.3566   86.6755    7.2232 H       1  UNL1        0.1497
     11 C          61.8185   84.5791    7.1159 C.3     1  UNL1        0.1939
     12 C          61.9503   83.8979    5.7860 C.3     1  UNL1        0.4154
     13 F          62.0821   83.2167    4.4561 F       1  UNL1       -0.1682
     14 F          60.5873   83.2961    5.9591 F       1  UNL1       -0.1682
     15 F          63.3133   84.4998    5.6129 F       1  UNL1       -0.1682
     16 C          58.5402   91.5955    4.9206 C.3     1  UNL1        0.0255
     17 C          59.9929   91.2331    4.8292 C.3     1  UNL1        0.1147
     18 C          61.4457   90.8708    4.7379 C.3     1  UNL1        0.0255
     19 C          60.1230   92.0670    3.5892 C.ar    1  UNL1        0.2186
     20 N          58.9983   92.7300    2.8505 N.ar    1  UNL1       -0.2093
     21 C          59.5807   93.4570    1.6749 C.ar    1  UNL1        0.1407
     22 C          61.0654   93.2434    1.6869 C.ar    1  UNL1        0.1834
     23 O          61.4006   92.3843    2.8700 O.2     1  UNL1       -0.4355
     24 C          62.0433   93.7924    0.6907 C.ar    1  UNL1        0.1173
     25 C          63.5156   93.7254    0.9697 C.ar    1  UNL1        0.0223
     26 C          64.4935   94.2744   -0.0265 C.ar    1  UNL1        0.0032
     27 C          63.9990   94.8904   -1.3016 C.ar    1  UNL1        0.0207
     28 C          62.5267   94.9574   -1.5806 C.ar    1  UNL1        0.0989
     29 N          61.5488   94.4084   -0.5844 N.ar    1  UNL1       -0.2407
     30 C          59.4728   87.8977    9.7895 C.3     1  UNL1        0.1021
     31 C          60.4141   88.1097   10.9380 C.3     1  UNL1        0.1269
     32 O          59.9781   88.9148   12.1261 O.3     1  UNL1       -0.3830
     33 H          59.0680   89.2224   11.9919 H       1  UNL1        0.2104
     34 C          61.7913   87.5167   10.8983 C.3     1  UNL1        0.0401
     35 C          62.4626   87.0935   12.1711 C.3     1  UNL1        0.0833
     36 C          63.2605   88.0858   12.9641 C.2     1  UNL1        0.2226
     37 O          64.3289   87.6098   13.9033 O.2     1  UNL1       -0.2751
     38 N          62.9900   89.5539   12.8179 N.am    1  UNL1       -0.2999
     39 H          62.2888   89.8662   12.2015 H       1  UNL1        0.1498
     40 C          63.7879   90.5461   13.6109 C.3     1  UNL1        0.1278
     41 C          64.6428   91.5565   12.9051 C.ar    1  UNL1        0.0320
     42 C          64.6998   91.5747   11.4062 C.ar    1  UNL1        0.0004
     43 C          65.5547   92.5851   10.7004 C.ar    1  UNL1       -0.0001
     44 C          66.3526   93.5773   11.4934 C.ar    1  UNL1        0.0031
     45 C          66.2956   93.5592   12.9922 C.ar    1  UNL1        0.0366
     46 C          65.4407   92.5488   13.6981 C.ar    1  UNL1        0.1362
     47 O          65.3836   92.5307   15.1968 O.3     1  UNL1       -0.4730
     48 C          64.5287   91.5203   15.9026 C.3     1  UNL1        0.2364
     49 C          63.7309   90.5280   15.1097 C.3     1  UNL1        0.1762
     50 O          62.8759   89.5176   15.8156 O.3     1  UNL1       -0.3788
     51 H          62.9524   89.6427   16.7744 H       1  UNL1        0.2106
     52 C          62.3360   85.6780   12.6511 C.3     1  UNL1        0.0355
     53 C          63.0910   84.5814   11.9601 C.ar    1  UNL1       -0.0217
     54 C          63.8179   83.5471   12.7675 C.ar    1  UNL1       -0.0043
     55 C          64.5728   82.4505   12.0764 C.ar    1  UNL1       -0.0003
     56 C          64.6010   82.3882   10.5780 C.ar    1  UNL1       -0.0000
     57 C          63.8742   83.4226    9.7706 C.ar    1  UNL1       -0.0003
     58 C          63.1192   84.5191   10.4616 C.ar    1  UNL1       -0.0043
@<TRIPOS>BOND
     1    16    17    1
     2    17    18    1
     3    17    19    1
     4    19    20   ar
     5    20    21   ar
     6    21    22   ar
     7    22    24    1
     8    24    25   ar
     9    25    26   ar
    10    26    27   ar
    11    27    28   ar
    12    28    29   ar
    13    22    23   ar
    14    17     1    1
    15     1     2    1
    16     2     3    1
    17     3     4    1
    18     4    30    1
    19    30    31    1
    20    31    32    1
    21    31    34    1
    22    35    34    1
    23    35    52    1
    24    52    53    1
    25    53    54   ar
    26    54    55   ar
    27    55    56   ar
    28    56    57   ar
    29    57    58   ar
    30    35    36    1
    31    36    37    2
    32    36    38   am
    33    40    38    1
    34    40    41    1
    35    41    42   ar
    36    42    43   ar
    37    43    44   ar
    38    44    45   ar
    39    45    46   ar
    40    46    47    1
    41    47    48    1
    42    48    49    1
    43    49    50    1
    44     4     5    1
    45     5     7    1
    46     7     8    2
    47     7     9   am
    48     9    11    1
    49    11    12    1
    50    12    13    1
    51    12    14    1
    52    12    15    1
    53     5     6    1
    54    23    19   ar
    55     6     1    1
    56    29    24   ar
    57    58    53   ar
    58    49    40    1
    59    46    41   ar
    60    32    33    1
    61    38    39    1
    62    50    51    1
    63     9    10    1
@<TRIPOS>MOLECULE
*****
 58 63 0 0 0
SMALL
GASTEIGER

@<TRIPOS>ATOM
      1 N          59.8147   90.4167    6.0399 N.3     1  UNL1       -0.2650
      2 C          59.4494   91.0660    7.3418 C.3     1  UNL1        0.0900
      3 C          59.3224   90.2355    8.5844 C.3     1  UNL1        0.0901
      4 N          59.5607   88.7558    8.5252 N.3     1  UNL1       -0.2621
      5 C          59.9261   88.1065    7.2233 C.3     1  UNL1        0.1510
      6 C          60.0531   88.9369    5.9806 C.3     1  UNL1        0.0980
      7 C          60.1644   86.6267    7.1641 C.2     1  UNL1        0.2386
      8 O          59.0012   85.6813    7.1087 O.2     1  UNL1       -0.2736
      9 N          61.5660   86.0923    7.1603 N.am    1  UNL1       -0.2961
     10 H          62.3295   86.7128    7.1967 H       1  UNL1        0.1497
     11 C          61.8044   84.6126    7.1011 C.3     1  UNL1        0.1939
     12 C          61.9112   83.9228    5.7735 C.3     1  UNL1        0.4154
     13 F          62.0182   83.2329    4.4458 F       1  UNL1       -0.1682
     14 F          63.2860   84.4932    5.5877 F       1  UNL1       -0.1682
     15 F          60.5365   83.3523    5.9592 F       1  UNL1       -0.1682
     16 C          58.4933   91.6231    4.9004 C.3     1  UNL1        0.0255
     17 C          59.9417   91.2472    4.7973 C.3     1  UNL1        0.1147
     18 C          61.3902   90.8713    4.6941 C.3     1  UNL1        0.0255
     19 C          60.0688   92.0777    3.5546 C.ar    1  UNL1        0.2186
     20 N          61.3400   92.6543    3.0056 N.ar    1  UNL1       -0.2093
     21 C          61.0038   93.4103    1.7545 C.ar    1  UNL1        0.1407
     22 C          59.5247   93.3009    1.5302 C.ar    1  UNL1        0.1834
     23 O          58.9467   92.4773    2.6427 O.2     1  UNL1       -0.4355
     24 C          58.7580   93.9085    0.3930 C.ar    1  UNL1        0.1173
     25 C          57.7849   93.0741   -0.3861 C.ar    1  UNL1        0.0223
     26 C          57.0183   93.6816   -1.5232 C.ar    1  UNL1        0.0032
     27 C          57.2247   95.1236   -1.8813 C.ar    1  UNL1        0.0207
     28 C          58.1978   95.9579   -1.1022 C.ar    1  UNL1        0.0989
     29 N          58.9644   95.3504    0.0350 N.ar    1  UNL1       -0.2407
     30 C          59.4337   87.9254    9.7679 C.3     1  UNL1        0.1021
     31 C          60.4178   88.0950   10.8871 C.3     1  UNL1        0.1269
     32 O          60.0960   89.0020   12.0376 O.3     1  UNL1       -0.3830
     33 H          59.2206   89.3974   11.9026 H       1  UNL1        0.2104
     34 C          61.7236   87.3575   10.8559 C.3     1  UNL1        0.0401
     35 C          62.3901   86.9578   12.1389 C.3     1  UNL1        0.0833
     36 C          63.2162   87.9542   12.8970 C.2     1  UNL1        0.2226
     37 O          64.3070   87.4824   13.8123 O.2     1  UNL1       -0.2751
     38 N          62.9517   89.4223   12.7398 N.am    1  UNL1       -0.2999
     39 H          62.2358   89.7319   12.1390 H       1  UNL1        0.1498
     40 C          63.7778   90.4186   13.4979 C.3     1  UNL1        0.1278
     41 C          64.5532   91.4679   12.7578 C.ar    1  UNL1        0.0320
     42 C          64.5025   91.5208   11.2596 C.ar    1  UNL1        0.0004
     43 C          65.2779   92.5701   10.5195 C.ar    1  UNL1       -0.0001
     44 C          66.1041   93.5665   11.2776 C.ar    1  UNL1        0.0031
     45 C          66.1548   93.5136   12.7758 C.ar    1  UNL1        0.0366
     46 C          65.3794   92.4642   13.5160 C.ar    1  UNL1        0.1362
     47 O          65.4302   92.4113   15.0141 O.3     1  UNL1       -0.4730
     48 C          64.6548   91.3621   15.7542 C.3     1  UNL1        0.2364
     49 C          63.8286   90.3657   14.9961 C.3     1  UNL1        0.1762
     50 O          63.0532   89.3164   15.7362 O.3     1  UNL1       -0.3788
     51 H          63.1947   89.4223   16.6900 H       1  UNL1        0.2106
     52 C          62.2304   85.5617   12.6638 C.3     1  UNL1        0.0355
     53 C          62.8023   84.4037   11.9010 C.ar    1  UNL1       -0.0217
     54 C          63.3764   84.6176   10.5318 C.ar    1  UNL1       -0.0043
     55 C          63.9483   83.4595    9.7690 C.ar    1  UNL1       -0.0003
     56 C          63.9460   82.0876   10.3754 C.ar    1  UNL1       -0.0000
     57 C          63.3718   81.8736   11.7445 C.ar    1  UNL1       -0.0003
     58 C          62.8000   83.0317   12.5073 C.ar    1  UNL1       -0.0043
@<TRIPOS>BOND
     1    16    17    1
     2    17    18    1
     3    17    19    1
     4    19    20   ar
     5    20    21   ar
     6    21    22   ar
     7    22    24    1
     8    24    25   ar
     9    25    26   ar
    10    26    27   ar
    11    27    28   ar
    12    28    29   ar
    13    22    23   ar
    14    17     1    1
    15     1     2    1
    16     2     3    1
    17     3     4    1
    18     4    30    1
    19    30    31    1
    20    31    32    1
    21    31    34    1
    22    35    34    1
    23    35    52    1
    24    52    53    1
    25    53    54   ar
    26    54    55   ar
    27    55    56   ar
    28    56    57   ar
    29    57    58   ar
    30    35    36    1
    31    36    37    2
    32    36    38   am
    33    40    38    1
    34    40    41    1
    35    41    42   ar
    36    42    43   ar
    37    43    44   ar
    38    44    45   ar
    39    45    46   ar
    40    46    47    1
    41    47    48    1
    42    48    49    1
    43    49    50    1
    44     4     5    1
    45     5     7    1
    46     7     8    2
    47     7     9   am
    48     9    11    1
    49    11    12    1
    50    12    13    1
    51    12    14    1
    52    12    15    1
    53     5     6    1
    54    23    19   ar
    55     6     1    1
    56    29    24   ar
    57    58    53   ar
    58    49    40    1
    59    46    41   ar
    60    32    33    1
    61    38    39    1
    62    50    51    1
    63     9    10    1
