@<TRIPOS>MOLECULE
*****
 35 39 0 0 0
SMALL
GASTEIGER

@<TRIPOS>ATOM
      1 C          63.9599   88.2951   13.6130 C.ar    1  UNL1        0.1060
      2 C          64.4607   87.4093   14.7150 C.ar    1  UNL1        0.0196
      3 C          64.1973   85.9333   14.6692 C.ar    1  UNL1        0.0160
      4 C          63.4330   85.3432   13.5212 C.ar    1  UNL1        0.0523
      5 C          62.9322   86.2290   12.4192 C.ar    1  UNL1        0.0682
      6 C          63.1957   87.7050   12.4651 C.ar    1  UNL1        0.0241
      7 C          62.1679   85.6389   11.2713 C.2     1  UNL1        0.2508
      8 O          62.0500   84.1497   11.1354 O.2     1  UNL1       -0.2698
      9 N          61.5217   86.5379   10.2594 N.am    1  UNL1       -0.2661
     10 C          60.7297   86.0951    9.0649 C.3     1  UNL1        0.1236
     11 C          60.2724   87.3212    8.3315 C.ar    1  UNL1        0.0338
     12 C          59.5004   87.8052    7.1400 C.ar    1  UNL1        0.0991
     13 N          59.5326   89.3049    7.1449 N.ar    1  UNL1       -0.2265
     14 N          60.3246   89.7477    8.3394 N.ar    1  UNL1       -0.1679
     15 C          60.7818   88.5216    9.0728 C.ar    1  UNL1        0.0981
     16 C          61.5539   88.0375   10.2642 C.3     1  UNL1        0.1414
     17 C          58.8863   90.2039    6.1329 C.ar    1  UNL1        0.1102
     18 C          57.3910   90.2711    6.0359 C.ar    1  UNL1        0.0214
     19 C          56.7447   91.1701    5.0240 C.ar    1  UNL1        0.0017
     20 C          57.5938   92.0019    4.1090 C.ar    1  UNL1        0.0024
     21 C          59.0891   91.9347    4.2060 C.ar    1  UNL1        0.0312
     22 C          59.7354   91.0357    5.2180 C.ar    1  UNL1        0.1577
     23 F          61.2308   90.9685    5.3149 F       1  UNL1       -0.2026
     24 N          63.1696   83.8672   13.4754 N.pl3   1  UNL1       -0.3070
     25 C          64.0182   82.9804   12.6132 C.3     1  UNL1        0.0964
     26 C          63.7547   81.5044   12.5673 C.3     1  UNL1        0.0880
     27 C          62.6428   80.9153   13.3837 C.3     1  UNL1        0.2672
     28 F          61.7134   79.8951   13.9715 F       1  UNL1       -0.2042
     29 F          63.1686   79.6741   12.7256 F       1  UNL1       -0.2042
     30 C          61.7942   81.8021   14.2459 C.3     1  UNL1        0.0880
     31 C          62.0576   83.2781   14.2917 C.3     1  UNL1        0.0964
     32 C          64.4867   91.2471   13.7047 C.3     1  UNL1        0.1816
     33 S          64.2233   89.7711   13.6588 S.O2    1  UNL1        0.0105
     34 O          64.8766   89.6129   14.9998 O.2     1  UNL1       -0.1686
     35 O          63.5700   89.9293   12.3179 O.2     1  UNL1       -0.1686
@<TRIPOS>BOND
     1    32    33    1
     2    33    34    2
     3    33    35    2
     4    33     1    1
     5     1     2   ar
     6     2     3   ar
     7     3     4   ar
     8     4    24    1
     9    24    25    1
    10    25    26    1
    11    26    27    1
    12    27    28    1
    13    27    29    1
    14    27    30    1
    15    30    31    1
    16     4     5   ar
    17     5     7    1
    18     7     8    2
    19     7     9   am
    20     9    10    1
    21    10    11    1
    22    11    12   ar
    23    12    13   ar
    24    13    17    1
    25    17    18   ar
    26    18    19   ar
    27    19    20   ar
    28    20    21   ar
    29    21    22   ar
    30    22    23    1
    31    13    14   ar
    32    14    15   ar
    33    15    16    1
    34     5     6   ar
    35     6     1   ar
    36    31    24    1
    37    16     9    1
    38    15    11   ar
    39    22    17   ar
@<TRIPOS>MOLECULE
*****
 35 39 0 0 0
SMALL
GASTEIGER

@<TRIPOS>ATOM
      1 C          60.3166   92.1182    3.8431 C.ar    1  UNL1        0.1060
      2 C          61.6313   91.4857    3.4945 C.ar    1  UNL1        0.0196
      3 C          62.5661   92.1739    2.5445 C.ar    1  UNL1        0.0160
      4 C          62.1862   93.4946    1.9432 C.ar    1  UNL1        0.0523
      5 C          60.8715   94.1271    2.2918 C.ar    1  UNL1        0.0682
      6 C          59.9367   93.4389    3.2419 C.ar    1  UNL1        0.0241
      7 C          60.4917   95.4477    1.6905 C.2     1  UNL1        0.2508
      8 O          61.1027   96.7137    2.2140 O.2     1  UNL1       -0.2698
      9 N          59.5010   95.5024    0.5656 N.am    1  UNL1       -0.2661
     10 C          59.0266   96.7427   -0.1320 C.3     1  UNL1        0.1236
     11 C          58.0431   96.3332   -1.1880 C.ar    1  UNL1        0.0338
     12 C          57.1421   96.8466   -2.2718 C.ar    1  UNL1        0.0991
     13 N          56.4519   95.6705   -2.8966 N.ar    1  UNL1       -0.2265
     14 N          56.9263   94.4302   -2.1990 N.ar    1  UNL1       -0.1679
     15 C          57.9098   94.8398   -1.1430 C.ar    1  UNL1        0.0981
     16 C          58.8108   94.3263   -0.0593 C.3     1  UNL1        0.1414
     17 C          55.4611   95.7252   -4.0215 C.ar    1  UNL1        0.1102
     18 C          55.8703   95.3059   -5.4024 C.ar    1  UNL1        0.0214
     19 C          54.8796   95.3606   -6.5273 C.ar    1  UNL1        0.0017
     20 C          53.4797   95.8346   -6.2714 C.ar    1  UNL1        0.0024
     21 C          53.0705   96.2538   -4.8905 C.ar    1  UNL1        0.0312
     22 C          54.0612   96.1992   -3.7656 C.ar    1  UNL1        0.1577
     23 F          53.6519   96.6185   -2.3847 F       1  UNL1       -0.2026
     24 N          63.1211   94.1827    0.9932 N.pl3   1  UNL1       -0.3070
     25 C          62.9893   93.9574   -0.4839 C.3     1  UNL1        0.0964
     26 C          63.9242   94.6456   -1.4339 C.3     1  UNL1        0.0880
     27 C          64.9909   95.5590   -0.9068 C.3     1  UNL1        0.2672
     28 F          66.1518   96.5088   -0.8908 F       1  UNL1       -0.2042
     29 F          65.2622   95.6636   -2.3784 F       1  UNL1       -0.2042
     30 C          65.1226   95.7843    0.5703 C.3     1  UNL1        0.0880
     31 C          64.1878   95.0962    1.5203 C.3     1  UNL1        0.0964
     32 C          58.4468   90.7419    5.7431 C.3     1  UNL1        0.1816
     33 S          59.3817   91.4301    4.7931 S.O2    1  UNL1        0.0105
     34 O          60.4834   90.4979    5.2021 O.2     1  UNL1       -0.1686
     35 O          58.2800   92.3623    4.3842 O.2     1  UNL1       -0.1686
@<TRIPOS>BOND
     1    32    33    1
     2    33    34    2
     3    33    35    2
     4    33     1    1
     5     1     2   ar
     6     2     3   ar
     7     3     4   ar
     8     4    24    1
     9    24    25    1
    10    25    26    1
    11    26    27    1
    12    27    28    1
    13    27    29    1
    14    27    30    1
    15    30    31    1
    16     4     5   ar
    17     5     7    1
    18     7     8    2
    19     7     9   am
    20     9    10    1
    21    10    11    1
    22    11    12   ar
    23    12    13   ar
    24    13    17    1
    25    17    18   ar
    26    18    19   ar
    27    19    20   ar
    28    20    21   ar
    29    21    22   ar
    30    22    23    1
    31    13    14   ar
    32    14    15   ar
    33    15    16    1
    34     5     6   ar
    35     6     1   ar
    36    31    24    1
    37    16     9    1
    38    15    11   ar
    39    22    17   ar
@<TRIPOS>MOLECULE
*****
 35 39 0 0 0
SMALL
GASTEIGER

@<TRIPOS>ATOM
      1 C          66.7253   92.2274   14.4674 C.ar    1  UNL1        0.1060
      2 C          66.3570   92.5128   13.0417 C.ar    1  UNL1        0.0196
      3 C          65.1528   91.8578   12.4326 C.ar    1  UNL1        0.0160
      4 C          64.3170   90.9175   13.2494 C.ar    1  UNL1        0.0523
      5 C          64.6853   90.6321   14.6752 C.ar    1  UNL1        0.0682
      6 C          65.8895   91.2871   15.2842 C.ar    1  UNL1        0.0241
      7 C          63.8494   89.6917   15.4919 C.2     1  UNL1        0.2508
      8 O          63.1842   90.1760   16.7461 O.2     1  UNL1       -0.2698
      9 N          63.6788   88.2671   15.0545 N.am    1  UNL1       -0.2661
     10 C          62.8773   87.2167   15.7646 C.3     1  UNL1        0.1236
     11 C          62.9829   85.9432   14.9790 C.ar    1  UNL1        0.0338
     12 C          62.5528   84.5069   14.9324 C.ar    1  UNL1        0.0991
     13 N          63.1537   83.8827   13.7079 N.ar    1  UNL1       -0.2265
     14 N          63.9551   84.9331   12.9978 N.ar    1  UNL1       -0.1679
     15 C          63.8496   86.2066   13.7834 C.ar    1  UNL1        0.0981
     16 C          64.2796   87.6429   13.8300 C.3     1  UNL1        0.1414
     17 C          62.9830   82.4581   13.2705 C.ar    1  UNL1        0.1102
     18 C          62.5313   81.4202   14.2547 C.ar    1  UNL1        0.0214
     19 C          62.3606   79.9956   13.8173 C.ar    1  UNL1        0.0017
     20 C          62.6417   79.6089   12.3955 C.ar    1  UNL1        0.0024
     21 C          63.0935   80.6467   11.4113 C.ar    1  UNL1        0.0312
     22 C          63.2641   82.0713   11.8487 C.ar    1  UNL1        0.1577
     23 F          63.7159   83.1091   10.8644 F       1  UNL1       -0.2026
     24 N          63.1128   90.2625   12.6404 N.pl3   1  UNL1       -0.3070
     25 C          63.2002   89.6580   11.2704 C.3     1  UNL1        0.0964
     26 C          61.9960   89.0031   10.6613 C.3     1  UNL1        0.0880
     27 C          60.7043   88.9526   11.4222 C.3     1  UNL1        0.2672
     28 F          59.2700   88.6565   11.7465 F       1  UNL1       -0.2042
     29 F          60.2937   88.2453   10.1648 F       1  UNL1       -0.2042
     30 C          60.6169   89.5572   12.7922 C.3     1  UNL1        0.0880
     31 C          61.8211   90.2121   13.4013 C.3     1  UNL1        0.0964
     32 C          69.1338   93.5373   15.6856 C.3     1  UNL1        0.1816
     33 S          67.9295   92.8823   15.0765 S.O2    1  UNL1        0.0105
     34 O          67.1040   93.3034   16.2560 O.2     1  UNL1       -0.1686
     35 O          68.7551   92.4613   13.8970 O.2     1  UNL1       -0.1686
@<TRIPOS>BOND
     1    32    33    1
     2    33    34    2
     3    33    35    2
     4    33     1    1
     5     1     2   ar
     6     2     3   ar
     7     3     4   ar
     8     4    24    1
     9    24    25    1
    10    25    26    1
    11    26    27    1
    12    27    28    1
    13    27    29    1
    14    27    30    1
    15    30    31    1
    16     4     5   ar
    17     5     7    1
    18     7     8    2
    19     7     9   am
    20     9    10    1
    21    10    11    1
    22    11    12   ar
    23    12    13   ar
    24    13    17    1
    25    17    18   ar
    26    18    19   ar
    27    19    20   ar
    28    20    21   ar
    29    21    22   ar
    30    22    23    1
    31    13    14   ar
    32    14    15   ar
    33    15    16    1
    34     5     6   ar
    35     6     1   ar
    36    31    24    1
    37    16     9    1
    38    15    11   ar
    39    22    17   ar
@<TRIPOS>MOLECULE
*****
 35 39 0 0 0
SMALL
GASTEIGER

@<TRIPOS>ATOM
      1 C          59.5791   88.9964    7.2418 C.ar    1  UNL1        0.1060
      2 C          60.2610   87.7744    6.7018 C.ar    1  UNL1        0.0196
      3 C          60.9630   86.8330    7.6352 C.ar    1  UNL1        0.0160
      4 C          60.9829   87.1138    9.1086 C.ar    1  UNL1        0.0523
      5 C          60.3009   88.3359    9.6486 C.ar    1  UNL1        0.0682
      6 C          59.5990   89.2772    8.7151 C.ar    1  UNL1        0.0241
      7 C          60.3209   88.6165   11.1220 C.2     1  UNL1        0.2508
      8 O          59.1393   88.2519   11.9710 O.2     1  UNL1       -0.2698
      9 N          61.5225   89.2619   11.7463 N.am    1  UNL1       -0.2661
     10 C          61.6862   89.6020   13.1980 C.3     1  UNL1        0.1236
     11 C          63.0363   90.2308   13.3774 C.ar    1  UNL1        0.0338
     12 C          63.9718   90.8295   14.3854 C.ar    1  UNL1        0.0991
     13 N          65.2206   91.2481   13.6676 N.ar    1  UNL1       -0.2265
     14 N          65.0569   90.9079   12.2158 N.ar    1  UNL1       -0.1679
     15 C          63.7068   90.2792   12.0365 C.ar    1  UNL1        0.0981
     16 C          62.7713   89.6804   11.0284 C.3     1  UNL1        0.1414
     17 C          66.4222   91.8934   14.2919 C.ar    1  UNL1        0.1102
     18 C          67.7322   91.9043   13.5613 C.ar    1  UNL1        0.0214
     19 C          68.9337   92.5496   14.1856 C.ar    1  UNL1        0.0017
     20 C          68.8253   93.1841   15.5405 C.ar    1  UNL1        0.0024
     21 C          67.5153   93.1732   16.2710 C.ar    1  UNL1        0.0312
     22 C          66.3137   92.5279   15.6467 C.ar    1  UNL1        0.1577
     23 F          65.0037   92.5170   16.3774 F       1  UNL1       -0.2026
     24 N          61.6848   86.1725   10.0420 N.pl3   1  UNL1       -0.3070
     25 C          61.3677   86.1944   11.5079 C.3     1  UNL1        0.0964
     26 C          62.0696   85.2531   12.4413 C.3     1  UNL1        0.0880
     27 C          63.0887   84.2898   11.9088 C.3     1  UNL1        0.2672
     28 F          64.1223   83.2031   11.8822 F       1  UNL1       -0.2042
     29 F          63.1305   83.9343   13.3655 F       1  UNL1       -0.2042
     30 C          63.4058   84.2679   10.4429 C.3     1  UNL1        0.0880
     31 C          62.7039   85.2092    9.5095 C.3     1  UNL1        0.0964
     32 C          58.1752   90.8791    5.3751 C.3     1  UNL1        0.1816
     33 S          58.8772   89.9377    6.3084 S.O2    1  UNL1        0.0105
     34 O          60.2020   90.4723    5.8513 O.2     1  UNL1       -0.1686
     35 O          57.5523   89.4031    6.7656 O.2     1  UNL1       -0.1686
@<TRIPOS>BOND
     1    32    33    1
     2    33    34    2
     3    33    35    2
     4    33     1    1
     5     1     2   ar
     6     2     3   ar
     7     3     4   ar
     8     4    24    1
     9    24    25    1
    10    25    26    1
    11    26    27    1
    12    27    28    1
    13    27    29    1
    14    27    30    1
    15    30    31    1
    16     4     5   ar
    17     5     7    1
    18     7     8    2
    19     7     9   am
    20     9    10    1
    21    10    11    1
    22    11    12   ar
    23    12    13   ar
    24    13    17    1
    25    17    18   ar
    26    18    19   ar
    27    19    20   ar
    28    20    21   ar
    29    21    22   ar
    30    22    23    1
    31    13    14   ar
    32    14    15   ar
    33    15    16    1
    34     5     6   ar
    35     6     1   ar
    36    31    24    1
    37    16     9    1
    38    15    11   ar
    39    22    17   ar
@<TRIPOS>MOLECULE
*****
 35 39 0 0 0
SMALL
GASTEIGER

@<TRIPOS>ATOM
      1 C          59.6057   88.9898    7.2639 C.ar    1  UNL1        0.1060
      2 C          60.2850   87.7669    6.7225 C.ar    1  UNL1        0.0196
      3 C          60.9828   86.8217    7.6550 C.ar    1  UNL1        0.0160
      4 C          61.0012   87.0994    9.1290 C.ar    1  UNL1        0.0523
      5 C          60.3219   88.3222    9.6704 C.ar    1  UNL1        0.0682
      6 C          59.6242   89.2674    8.7378 C.ar    1  UNL1        0.0241
      7 C          60.3405   88.5998   11.1444 C.2     1  UNL1        0.2508
      8 O          59.1635   88.2211   11.9938 O.2     1  UNL1       -0.2698
      9 N          61.5359   89.2561   11.7690 N.am    1  UNL1       -0.2661
     10 C          61.6975   89.5947   13.2213 C.3     1  UNL1        0.1236
     11 C          63.0412   90.2370   13.4008 C.ar    1  UNL1        0.0338
     12 C          63.9715   90.8431   14.4093 C.ar    1  UNL1        0.0991
     13 N          65.2152   91.2761   13.6912 N.ar    1  UNL1       -0.2265
     14 N          65.0536   90.9376   12.2389 N.ar    1  UNL1       -0.1679
     15 C          63.7099   90.2953   12.0594 C.ar    1  UNL1        0.0981
     16 C          62.7796   89.6891   11.0509 C.3     1  UNL1        0.1414
     17 C          66.4106   91.9325   14.3158 C.ar    1  UNL1        0.1102
     18 C          66.3106   92.5180   15.6932 C.ar    1  UNL1        0.0214
     19 C          67.5060   93.1743   16.3178 C.ar    1  UNL1        0.0017
     20 C          68.8015   93.2451   15.5650 C.ar    1  UNL1        0.0024
     21 C          68.9015   92.6596   14.1876 C.ar    1  UNL1        0.0312
     22 C          67.7061   92.0033   13.5630 C.ar    1  UNL1        0.1577
     23 F          67.8062   91.4178   12.1856 F       1  UNL1       -0.2026
     24 N          61.6990   86.1541   10.0615 N.pl3   1  UNL1       -0.3070
     25 C          62.7031   85.1769    9.5260 C.3     1  UNL1        0.0964
     26 C          63.4009   84.2316   10.4585 C.3     1  UNL1        0.0880
     27 C          63.0946   84.2636   11.9265 C.3     1  UNL1        0.2672
     28 F          63.1429   83.9139   13.3844 F       1  UNL1       -0.2042
     29 F          64.1155   83.1649   11.8973 F       1  UNL1       -0.2042
     30 C          62.0905   85.2408   12.4621 C.3     1  UNL1        0.0880
     31 C          61.3927   86.1860   11.5295 C.3     1  UNL1        0.0964
     32 C          58.2101   90.8803    5.3989 C.3     1  UNL1        0.1816
     33 S          58.9079   89.9350    6.3314 S.O2    1  UNL1        0.0105
     34 O          57.5810   89.4001    6.7821 O.2     1  UNL1       -0.1686
     35 O          60.2348   90.4700    5.8808 O.2     1  UNL1       -0.1686
@<TRIPOS>BOND
     1    32    33    1
     2    33    34    2
     3    33    35    2
     4    33     1    1
     5     1     2   ar
     6     2     3   ar
     7     3     4   ar
     8     4    24    1
     9    24    25    1
    10    25    26    1
    11    26    27    1
    12    27    28    1
    13    27    29    1
    14    27    30    1
    15    30    31    1
    16     4     5   ar
    17     5     7    1
    18     7     8    2
    19     7     9   am
    20     9    10    1
    21    10    11    1
    22    11    12   ar
    23    12    13   ar
    24    13    17    1
    25    17    18   ar
    26    18    19   ar
    27    19    20   ar
    28    20    21   ar
    29    21    22   ar
    30    22    23    1
    31    13    14   ar
    32    14    15   ar
    33    15    16    1
    34     5     6   ar
    35     6     1   ar
    36    31    24    1
    37    16     9    1
    38    15    11   ar
    39    22    17   ar
@<TRIPOS>MOLECULE
*****
 35 39 0 0 0
SMALL
GASTEIGER

@<TRIPOS>ATOM
      1 C          62.3764   90.4977   10.7534 C.ar    1  UNL1        0.1060
      2 C          63.0776   91.8038   10.5245 C.ar    1  UNL1        0.0196
      3 C          64.2036   92.2184   11.4247 C.ar    1  UNL1        0.0160
      4 C          64.6282   91.3268   12.5538 C.ar    1  UNL1        0.0523
      5 C          63.9270   90.0207   12.7826 C.ar    1  UNL1        0.0682
      6 C          62.8011   89.6061   11.8824 C.ar    1  UNL1        0.0241
      7 C          64.3518   89.1292   13.9117 C.2     1  UNL1        0.2508
      8 O          65.1521   89.6898   15.0498 O.2     1  UNL1       -0.2698
      9 N          63.9762   87.6770   13.9027 N.am    1  UNL1       -0.2661
     10 C          64.3276   86.6688   14.9564 C.3     1  UNL1        0.1236
     11 C          63.7519   85.3467   14.5432 C.ar    1  UNL1        0.0338
     12 C          63.6132   83.9066   14.9391 C.ar    1  UNL1        0.0991
     13 N          62.8203   83.2076   13.8749 N.ar    1  UNL1       -0.2265
     14 N          62.4688   84.2157   12.8212 N.ar    1  UNL1       -0.1679
     15 C          63.0446   85.5379   13.2343 C.ar    1  UNL1        0.0981
     16 C          63.1833   86.9780   12.8384 C.3     1  UNL1        0.1414
     17 C          62.4447   81.7554   13.8659 C.ar    1  UNL1        0.1102
     18 C          61.0565   81.3373   14.2508 C.ar    1  UNL1        0.0214
     19 C          60.6810   79.8851   14.2418 C.ar    1  UNL1        0.0017
     20 C          61.6936   78.8510   13.8478 C.ar    1  UNL1        0.0024
     21 C          63.0818   79.2691   13.4629 C.ar    1  UNL1        0.0312
     22 C          63.4573   80.7213   13.4719 C.ar    1  UNL1        0.1577
     23 F          64.8456   81.1393   13.0869 F       1  UNL1       -0.2026
     24 N          65.7542   91.7414   13.4540 N.pl3   1  UNL1       -0.3070
     25 C          67.1753   91.5643   13.0078 C.3     1  UNL1        0.0964
     26 C          68.3012   91.9788   13.9080 C.3     1  UNL1        0.0880
     27 C          68.0061   92.5705   15.2544 C.3     1  UNL1        0.2672
     28 F          68.2317   93.1734   16.6093 F       1  UNL1       -0.2042
     29 F          69.5056   92.6028   15.2787 F       1  UNL1       -0.2042
     30 C          66.5850   92.7476   15.7006 C.3     1  UNL1        0.0880
     31 C          65.4590   92.3330   14.8004 C.3     1  UNL1        0.0964
     32 C          60.1245   89.6685    8.9529 C.3     1  UNL1        0.1816
     33 S          61.2505   90.0831    9.8531 S.O2    1  UNL1        0.0105
     34 O          60.3480   91.0753   10.5249 O.2     1  UNL1       -0.1686
     35 O          62.1529   89.0910    9.1814 O.2     1  UNL1       -0.1686
@<TRIPOS>BOND
     1    32    33    1
     2    33    34    2
     3    33    35    2
     4    33     1    1
     5     1     2   ar
     6     2     3   ar
     7     3     4   ar
     8     4    24    1
     9    24    25    1
    10    25    26    1
    11    26    27    1
    12    27    28    1
    13    27    29    1
    14    27    30    1
    15    30    31    1
    16     4     5   ar
    17     5     7    1
    18     7     8    2
    19     7     9   am
    20     9    10    1
    21    10    11    1
    22    11    12   ar
    23    12    13   ar
    24    13    17    1
    25    17    18   ar
    26    18    19   ar
    27    19    20   ar
    28    20    21   ar
    29    21    22   ar
    30    22    23    1
    31    13    14   ar
    32    14    15   ar
    33    15    16    1
    34     5     6   ar
    35     6     1   ar
    36    31    24    1
    37    16     9    1
    38    15    11   ar
    39    22    17   ar
@<TRIPOS>MOLECULE
*****
 35 39 0 0 0
SMALL
GASTEIGER

@<TRIPOS>ATOM
      1 C          65.7306   92.6070   12.1788 C.ar    1  UNL1        0.1060
      2 C          66.4244   92.2830   13.4686 C.ar    1  UNL1        0.0196
      3 C          65.8680   91.2246   14.3742 C.ar    1  UNL1        0.0160
      4 C          64.6177   90.4903   13.9900 C.ar    1  UNL1        0.0523
      5 C          63.9239   90.8143   12.7002 C.ar    1  UNL1        0.0682
      6 C          64.4804   91.8727   11.7946 C.ar    1  UNL1        0.0241
      7 C          62.6736   90.0799   12.3160 C.2     1  UNL1        0.2508
      8 O          61.4117   90.8417   12.0380 O.2     1  UNL1       -0.2698
      9 N          62.6853   88.5837   12.2099 N.am    1  UNL1       -0.2661
     10 C          61.5187   87.7171   11.8383 C.3     1  UNL1        0.1236
     11 C          61.9781   86.2892   11.8555 C.ar    1  UNL1        0.0338
     12 C          61.5410   84.8711   11.6365 C.ar    1  UNL1        0.0991
     13 N          62.7213   83.9789   11.8834 N.ar    1  UNL1       -0.2265
     14 N          63.8878   84.8456   12.2551 N.ar    1  UNL1       -0.1679
     15 C          63.4285   86.2735   12.2379 C.ar    1  UNL1        0.0981
     16 C          63.8655   87.6915   12.4569 C.3     1  UNL1        0.1414
     17 C          62.7329   82.4827   11.7773 C.ar    1  UNL1        0.1102
     18 C          63.1260   81.8253   10.4877 C.ar    1  UNL1        0.0214
     19 C          63.1377   80.3291   10.3816 C.ar    1  UNL1        0.0017
     20 C          62.7562   79.4903   11.5651 C.ar    1  UNL1        0.0024
     21 C          62.3631   80.1477   12.8548 C.ar    1  UNL1        0.0312
     22 C          62.3514   81.6439   12.9609 C.ar    1  UNL1        0.1577
     23 F          61.9583   82.3013   14.2507 F       1  UNL1       -0.2026
     24 N          64.0613   89.4319   14.8957 N.pl3   1  UNL1       -0.3070
     25 C          62.9758   89.7753   15.8723 C.3     1  UNL1        0.0964
     26 C          62.4194   88.7169   16.7779 C.3     1  UNL1        0.0880
     27 C          62.9484   87.3151   16.7070 C.3     1  UNL1        0.2672
     28 F          63.1214   85.8566   17.0120 F       1  UNL1       -0.2042
     29 F          61.9230   87.1520   17.7896 F       1  UNL1       -0.2042
     30 C          64.0339   86.9717   15.7304 C.3     1  UNL1        0.0880
     31 C          64.5903   88.0301   14.8247 C.3     1  UNL1        0.0964
     32 C          66.8434   94.7238   10.3674 C.3     1  UNL1        0.1816
     33 S          66.2870   93.6654   11.2731 S.O2    1  UNL1        0.0105
     34 O          66.0733   92.7666   10.0914 O.2     1  UNL1       -0.1686
     35 O          66.5007   94.5643   12.4548 O.2     1  UNL1       -0.1686
@<TRIPOS>BOND
     1    32    33    1
     2    33    34    2
     3    33    35    2
     4    33     1    1
     5     1     2   ar
     6     2     3   ar
     7     3     4   ar
     8     4    24    1
     9    24    25    1
    10    25    26    1
    11    26    27    1
    12    27    28    1
    13    27    29    1
    14    27    30    1
    15    30    31    1
    16     4     5   ar
    17     5     7    1
    18     7     8    2
    19     7     9   am
    20     9    10    1
    21    10    11    1
    22    11    12   ar
    23    12    13   ar
    24    13    17    1
    25    17    18   ar
    26    18    19   ar
    27    19    20   ar
    28    20    21   ar
    29    21    22   ar
    30    22    23    1
    31    13    14   ar
    32    14    15   ar
    33    15    16    1
    34     5     6   ar
    35     6     1   ar
    36    31    24    1
    37    16     9    1
    38    15    11   ar
    39    22    17   ar
