@<TRIPOS>MOLECULE
*****
 15 16 0 0 0
SMALL
GASTEIGER

@<TRIPOS>ATOM
      1 C          67.1627   92.1924   15.2776 C.3     1  UNL1        0.0345
      2 C          65.9654   91.7530   14.4880 C.2     1  UNL1        0.0202
      3 C          64.8621   90.9909   15.1602 C.2     1  UNL1        0.0410
      4 C          63.6649   90.5516   14.3706 C.2     1  UNL1        0.1984
      5 O          62.5615   89.7894   15.0429 O.2     1  UNL1       -0.2865
      6 C          63.5709   90.8743   12.9087 C.ar    1  UNL1        0.0756
      7 C          62.3736   90.4350   12.1191 C.ar    1  UNL1        0.1368
      8 O          61.2703   89.6728   12.7914 O.3     1  UNL1       -0.5054
      9 C          62.2796   90.7577   10.6573 C.ar    1  UNL1        0.0367
     10 C          63.3830   91.5198    9.9851 C.ar    1  UNL1        0.0032
     11 C          64.5802   91.9592   10.7747 C.ar    1  UNL1        0.0035
     12 C          64.6742   91.6364   12.2365 C.ar    1  UNL1        0.0446
     13 C          65.8715   92.0758   13.0262 C.2     1  UNL1        0.1919
     14 O          66.9748   92.8379   12.3539 O.2     1  UNL1       -0.2869
     15 H          61.3290   89.4712   13.7045 H       1  UNL1        0.2922
@<TRIPOS>BOND
     1     1     2    1
     2     2     3    2
     3     3     4    1
     4     4     5    2
     5     4     6    1
     6     6     7   ar
     7     7     8    1
     8     7     9   ar
     9     9    10   ar
    10    10    11   ar
    11    11    12   ar
    12    12    13    1
    13    13    14    2
    14    13     2    1
    15    12     6   ar
    16     8    15    1
@<TRIPOS>MOLECULE
*****
 15 16 0 0 0
SMALL
GASTEIGER

@<TRIPOS>ATOM
      1 C          59.7580   86.3484    8.0944 C.3     1  UNL1        0.0345
      2 C          60.6262   86.9288    9.1712 C.2     1  UNL1        0.0202
      3 C          61.2269   86.0335   10.2141 C.2     1  UNL1        0.0410
      4 C          62.0951   86.6138   11.2909 C.2     1  UNL1        0.1984
      5 O          62.6957   85.7185   12.3338 O.2     1  UNL1       -0.2865
      6 C          62.3626   88.0894   11.3248 C.ar    1  UNL1        0.0756
      7 C          63.2308   88.6697   12.4015 C.ar    1  UNL1        0.1368
      8 O          63.8315   87.7744   13.4445 O.3     1  UNL1       -0.5054
      9 C          63.4983   90.1452   12.4354 C.ar    1  UNL1        0.0367
     10 C          62.8977   91.0405   11.3924 C.ar    1  UNL1        0.0032
     11 C          62.0295   90.4602   10.3156 C.ar    1  UNL1        0.0035
     12 C          61.7620   88.9847   10.2818 C.ar    1  UNL1        0.0446
     13 C          60.8937   88.4043    9.2050 C.2     1  UNL1        0.1919
     14 O          60.2931   89.2995    8.1621 O.2     1  UNL1       -0.2869
     15 H          63.6644   86.8527   13.4233 H       1  UNL1        0.2922
@<TRIPOS>BOND
     1     1     2    1
     2     2     3    2
     3     3     4    1
     4     4     5    2
     5     4     6    1
     6     6     7   ar
     7     7     8    1
     8     7     9   ar
     9     9    10   ar
    10    10    11   ar
    11    11    12   ar
    12    12    13    1
    13    13    14    2
    14    13     2    1
    15    12     6   ar
    16     8    15    1
@<TRIPOS>MOLECULE
*****
 15 16 0 0 0
SMALL
GASTEIGER

@<TRIPOS>ATOM
      1 C          62.0645   89.4788   10.8053 C.3     1  UNL1        0.0345
      2 C          63.1086   90.4007   11.3622 C.2     1  UNL1        0.0202
      3 C          63.7582   91.4211   10.4751 C.2     1  UNL1        0.0410
      4 C          64.8023   92.3430   11.0319 C.2     1  UNL1        0.1984
      5 O          65.4519   93.3633   10.1448 O.2     1  UNL1       -0.2865
      6 C          65.1967   92.2446   12.4758 C.ar    1  UNL1        0.0756
      7 C          66.2408   93.1665   13.0325 C.ar    1  UNL1        0.1368
      8 O          66.8904   94.1868   12.1454 O.3     1  UNL1       -0.5054
      9 C          66.6352   93.0680   14.4764 C.ar    1  UNL1        0.0367
     10 C          65.9856   92.0477   15.3634 C.ar    1  UNL1        0.0032
     11 C          64.9415   91.1258   14.8067 C.ar    1  UNL1        0.0035
     12 C          64.5471   91.2242   13.3628 C.ar    1  UNL1        0.0446
     13 C          63.5030   90.3023   12.8060 C.2     1  UNL1        0.1919
     14 O          62.8534   89.2819   13.6931 O.2     1  UNL1       -0.2869
     15 H          66.6440   94.2483   11.2435 H       1  UNL1        0.2922
@<TRIPOS>BOND
     1     1     2    1
     2     2     3    2
     3     3     4    1
     4     4     5    2
     5     4     6    1
     6     6     7   ar
     7     7     8    1
     8     7     9   ar
     9     9    10   ar
    10    10    11   ar
    11    11    12   ar
    12    12    13    1
    13    13    14    2
    14    13     2    1
    15    12     6   ar
    16     8    15    1
@<TRIPOS>MOLECULE
*****
 15 16 0 0 0
SMALL
GASTEIGER

@<TRIPOS>ATOM
      1 C          61.6422   86.4156    8.7416 C.3     1  UNL1        0.0345
      2 C          62.3045   85.5258    9.7514 C.2     1  UNL1        0.0202
      3 C          63.2534   84.4554    9.3000 C.2     1  UNL1        0.0410
      4 C          63.9157   83.5656   10.3098 C.2     1  UNL1        0.1984
      5 O          64.8646   82.4952    9.8583 O.2     1  UNL1       -0.2865
      6 C          63.6290   83.7462   11.7711 C.ar    1  UNL1        0.0756
      7 C          64.2913   82.8565   12.7808 C.ar    1  UNL1        0.1368
      8 O          65.2402   81.7861   12.3294 O.3     1  UNL1       -0.5054
      9 C          64.0047   83.0371   14.2420 C.ar    1  UNL1        0.0367
     10 C          63.0557   84.1075   14.6935 C.ar    1  UNL1        0.0032
     11 C          62.3935   84.9973   13.6837 C.ar    1  UNL1        0.0035
     12 C          62.6801   84.8166   12.2225 C.ar    1  UNL1        0.0446
     13 C          62.0178   85.7064   11.2126 C.2     1  UNL1        0.1919
     14 O          61.0689   86.7768   11.6641 O.2     1  UNL1       -0.2869
     15 H          65.4193   81.6732   11.4166 H       1  UNL1        0.2922
@<TRIPOS>BOND
     1     1     2    1
     2     2     3    2
     3     3     4    1
     4     4     5    2
     5     4     6    1
     6     6     7   ar
     7     7     8    1
     8     7     9   ar
     9     9    10   ar
    10    10    11   ar
    11    11    12   ar
    12    12    13    1
    13    13    14    2
    14    13     2    1
    15    12     6   ar
    16     8    15    1
@<TRIPOS>MOLECULE
*****
 15 16 0 0 0
SMALL
GASTEIGER

@<TRIPOS>ATOM
      1 C          62.7514   85.4431   16.2007 C.3     1  UNL1        0.0345
      2 C          62.8330   84.4418   15.0867 C.2     1  UNL1        0.0202
      3 C          62.4664   83.0091   15.3376 C.2     1  UNL1        0.0410
      4 C          62.5480   82.0079   14.2237 C.2     1  UNL1        0.1984
      5 O          62.1814   80.5752   14.4747 O.2     1  UNL1       -0.2865
      6 C          62.9963   82.4394   12.8588 C.ar    1  UNL1        0.0756
      7 C          63.0780   81.4381   11.7449 C.ar    1  UNL1        0.1368
      8 O          62.7113   80.0054   11.9958 O.3     1  UNL1       -0.5054
      9 C          63.5263   81.8696   10.3801 C.ar    1  UNL1        0.0367
     10 C          63.8929   83.3023   10.1291 C.ar    1  UNL1        0.0032
     11 C          63.8113   84.3035   11.2430 C.ar    1  UNL1        0.0035
     12 C          63.3630   83.8720   12.6079 C.ar    1  UNL1        0.0446
     13 C          63.2813   84.8733   13.7219 C.2     1  UNL1        0.1919
     14 O          63.6480   86.3060   13.4709 O.2     1  UNL1       -0.2869
     15 H          62.4313   79.7359   12.8484 H       1  UNL1        0.2922
@<TRIPOS>BOND
     1     1     2    1
     2     2     3    2
     3     3     4    1
     4     4     5    2
     5     4     6    1
     6     6     7   ar
     7     7     8    1
     8     7     9   ar
     9     9    10   ar
    10    10    11   ar
    11    11    12   ar
    12    12    13    1
    13    13    14    2
    14    13     2    1
    15    12     6   ar
    16     8    15    1
@<TRIPOS>MOLECULE
*****
 15 16 0 0 0
SMALL
GASTEIGER

@<TRIPOS>ATOM
      1 C          62.7522   84.2281   12.4996 C.3     1  UNL1        0.0345
      2 C          62.4731   85.5621   11.8729 C.2     1  UNL1        0.0202
      3 C          61.6159   85.6492   10.6450 C.2     1  UNL1        0.0410
      4 C          61.3368   86.9831   10.0183 C.2     1  UNL1        0.1984
      5 O          60.4796   87.0702    8.7905 O.2     1  UNL1       -0.2865
      6 C          61.9148   88.2299   10.6195 C.ar    1  UNL1        0.0756
      7 C          61.6357   89.5638    9.9928 C.ar    1  UNL1        0.1368
      8 O          60.7785   89.6509    8.7649 O.3     1  UNL1       -0.5054
      9 C          62.2137   90.8106   10.5940 C.ar    1  UNL1        0.0367
     10 C          63.0708   90.7234   11.8219 C.ar    1  UNL1        0.0032
     11 C          63.3500   89.3895   12.4486 C.ar    1  UNL1        0.0035
     12 C          62.7720   88.1428   11.8474 C.ar    1  UNL1        0.0446
     13 C          63.0511   86.8088   12.4741 C.2     1  UNL1        0.1919
     14 O          63.9083   86.7217   13.7020 O.2     1  UNL1       -0.2869
     15 H          60.4175   88.8721    8.3894 H       1  UNL1        0.2922
@<TRIPOS>BOND
     1     1     2    1
     2     2     3    2
     3     3     4    1
     4     4     5    2
     5     4     6    1
     6     6     7   ar
     7     7     8    1
     8     7     9   ar
     9     9    10   ar
    10    10    11   ar
    11    11    12   ar
    12    12    13    1
    13    13    14    2
    14    13     2    1
    15    12     6   ar
    16     8    15    1
@<TRIPOS>MOLECULE
*****
 15 16 0 0 0
SMALL
GASTEIGER

@<TRIPOS>ATOM
      1 C          66.6440   93.7417   10.1102 C.3     1  UNL1        0.0345
      2 C          65.7269   92.8731   10.9193 C.2     1  UNL1        0.0202
      3 C          64.4978   92.2884   10.2889 C.2     1  UNL1        0.0410
      4 C          63.5807   91.4199   11.0979 C.2     1  UNL1        0.1984
      5 O          62.3516   90.8352   10.4675 O.2     1  UNL1       -0.2865
      6 C          63.8928   91.1360   12.5375 C.ar    1  UNL1        0.0756
      7 C          62.9757   90.2675   13.3465 C.ar    1  UNL1        0.1368
      8 O          61.7466   89.6828   12.7161 O.3     1  UNL1       -0.5054
      9 C          63.2878   89.9836   14.7859 C.ar    1  UNL1        0.0367
     10 C          64.5169   90.5683   15.4163 C.ar    1  UNL1        0.0032
     11 C          65.4339   91.4369   14.6073 C.ar    1  UNL1        0.0035
     12 C          65.1219   91.7207   13.1679 C.ar    1  UNL1        0.0446
     13 C          66.0390   92.5893   12.3587 C.2     1  UNL1        0.1919
     14 O          67.2681   93.1740   12.9891 O.2     1  UNL1       -0.2869
     15 H          61.5517   89.8601   11.8169 H       1  UNL1        0.2922
@<TRIPOS>BOND
     1     1     2    1
     2     2     3    2
     3     3     4    1
     4     4     5    2
     5     4     6    1
     6     6     7   ar
     7     7     8    1
     8     7     9   ar
     9     9    10   ar
    10    10    11   ar
    11    11    12   ar
    12    12    13    1
    13    13    14    2
    14    13     2    1
    15    12     6   ar
    16     8    15    1
@<TRIPOS>MOLECULE
*****
 15 16 0 0 0
SMALL
GASTEIGER

@<TRIPOS>ATOM
      1 C          64.6771   89.7303   14.4193 C.3     1  UNL1        0.0345
      2 C          63.8298   89.3856   13.2304 C.2     1  UNL1        0.0202
      3 C          63.3351   90.4717   12.3218 C.2     1  UNL1        0.0410
      4 C          62.4879   90.1270   11.1330 C.2     1  UNL1        0.1984
      5 O          61.9932   91.2132   10.2243 O.2     1  UNL1       -0.2865
      6 C          62.1352   88.6962   10.8528 C.ar    1  UNL1        0.0756
      7 C          61.2879   88.3516    9.6640 C.ar    1  UNL1        0.1368
      8 O          60.7933   89.4377    8.7553 O.3     1  UNL1       -0.5054
      9 C          60.9353   86.9208    9.3838 C.ar    1  UNL1        0.0367
     10 C          61.4300   85.8347   10.2925 C.ar    1  UNL1        0.0032
     11 C          62.2773   86.1793   11.4813 C.ar    1  UNL1        0.0035
     12 C          62.6299   87.6101   11.7614 C.ar    1  UNL1        0.0446
     13 C          63.4772   87.9548   12.9503 C.2     1  UNL1        0.1919
     14 O          63.9719   86.8687   13.8589 O.2     1  UNL1       -0.2869
     15 H          61.0135   90.3314    8.9303 H       1  UNL1        0.2922
@<TRIPOS>BOND
     1     1     2    1
     2     2     3    2
     3     3     4    1
     4     4     5    2
     5     4     6    1
     6     6     7   ar
     7     7     8    1
     8     7     9   ar
     9     9    10   ar
    10    10    11   ar
    11    11    12   ar
    12    12    13    1
    13    13    14    2
    14    13     2    1
    15    12     6   ar
    16     8    15    1
@<TRIPOS>MOLECULE
*****
 15 16 0 0 0
SMALL
GASTEIGER

@<TRIPOS>ATOM
      1 C          62.9719   90.5033   10.0296 C.3     1  UNL1        0.0345
      2 C          63.3839   90.7518   11.4504 C.2     1  UNL1        0.0202
      3 C          62.6478   90.0822   12.5727 C.2     1  UNL1        0.0410
      4 C          63.0596   90.3307   13.9935 C.2     1  UNL1        0.1984
      5 O          62.3235   89.6611   15.1158 O.2     1  UNL1       -0.2865
      6 C          64.2077   91.2489   14.2919 C.ar    1  UNL1        0.0756
      7 C          64.6196   91.4975   15.7126 C.ar    1  UNL1        0.1368
      8 O          63.8835   90.8278   16.8350 O.3     1  UNL1       -0.5054
      9 C          65.7675   92.4156   16.0110 C.ar    1  UNL1        0.0367
     10 C          66.5036   93.0853   14.8886 C.ar    1  UNL1        0.0032
     11 C          66.0918   92.8367   13.4679 C.ar    1  UNL1        0.0035
     12 C          64.9438   91.9186   13.1695 C.ar    1  UNL1        0.0446
     13 C          64.5319   91.6700   11.7487 C.2     1  UNL1        0.1919
     14 O          65.2680   92.3396   10.6263 O.2     1  UNL1       -0.2869
     15 H          63.1663   90.2543   16.6486 H       1  UNL1        0.2922
@<TRIPOS>BOND
     1     1     2    1
     2     2     3    2
     3     3     4    1
     4     4     5    2
     5     4     6    1
     6     6     7   ar
     7     7     8    1
     8     7     9   ar
     9     9    10   ar
    10    10    11   ar
    11    11    12   ar
    12    12    13    1
    13    13    14    2
    14    13     2    1
    15    12     6   ar
    16     8    15    1
