@<TRIPOS>MOLECULE
*****
 27 30 0 0 0
SMALL
GASTEIGER

@<TRIPOS>ATOM
      1 N          64.0154   90.7118   14.4799 N.ar    1  UNL1       -0.3106
      2 C          63.6835   90.6721   13.0176 C.ar    1  UNL1        0.1215
      3 N          64.6149   91.6077   12.3055 N.ar    1  UNL1       -0.2309
      4 C          65.5224   92.2256   13.3276 C.ar    1  UNL1        0.0983
      5 C          66.6382   93.2208   13.2081 C.ar    1  UNL1        0.0206
      6 C          67.3835   93.6624   14.4326 C.ar    1  UNL1        0.0016
      7 C          67.0130   93.1088   15.7766 C.ar    1  UNL1        0.0016
      8 C          65.8972   92.1135   15.8960 C.ar    1  UNL1        0.0188
      9 C          65.1519   91.6719   14.6715 C.ar    1  UNL1        0.0789
     10 C          62.6090   89.8425   12.3796 C.3     1  UNL1        0.0729
     11 C          61.2193   90.3905   12.2443 C.3     1  UNL1        0.0103
     12 C          60.1447   89.5609   11.6063 C.3     1  UNL1        0.0178
     13 C          60.4599   88.1833   11.1035 C.3     1  UNL1        0.0721
     14 N          61.8496   87.6353   11.2388 N.3     1  UNL1       -0.2736
     15 C          62.9241   88.4649   11.8768 C.3     1  UNL1        0.0795
     16 C          62.1648   86.2576   10.7360 C.3     1  UNL1        0.0576
     17 C          62.2706   86.0033    9.2615 C.3     1  UNL1        0.0173
     18 C          62.3742   85.1343   11.7077 C.3     1  UNL1        0.0173
     19 C          63.3310   89.9289   15.5609 C.3     1  UNL1        0.1339
     20 C          63.9519   85.4817   15.8555 C.ar    1  UNL1        0.1387
     21 C          64.5764   86.2533   14.7309 C.ar    1  UNL1        0.0366
     22 C          64.3694   87.7357   14.6327 C.ar    1  UNL1        0.0007
     23 C          63.5379   88.4466   15.6591 C.ar    1  UNL1        0.0006
     24 C          62.9135   87.6749   16.7837 C.ar    1  UNL1        0.0007
     25 C          63.1205   86.1925   16.8819 C.ar    1  UNL1        0.0366
     26 C          63.8960   83.1249   14.7635 C.3     1  UNL1        0.2525
     27 O          64.1589   83.9993   15.9537 O.3     1  UNL1       -0.4714
@<TRIPOS>BOND
     1    26    27    1
     2    27    20    1
     3    20    21   ar
     4    21    22   ar
     5    22    23   ar
     6    23    19    1
     7    19     1    1
     8     1     2   ar
     9     2    10    1
    10    10    11    1
    11    11    12    1
    12    12    13    1
    13    13    14    1
    14    14    16    1
    15    16    17    1
    16    16    18    1
    17    14    15    1
    18     2     3   ar
    19     3     4   ar
    20     4     5   ar
    21     5     6   ar
    22     6     7   ar
    23     7     8   ar
    24     8     9   ar
    25    23    24   ar
    26    24    25   ar
    27    25    20   ar
    28     9     1   ar
    29    15    10    1
    30     9     4   ar
@<TRIPOS>MOLECULE
*****
 27 30 0 0 0
SMALL
GASTEIGER

@<TRIPOS>ATOM
      1 N          63.6666   90.4855   13.0479 N.ar    1  UNL1       -0.3106
      2 C          64.4520   89.8816   14.1741 C.ar    1  UNL1        0.1215
      3 N          65.7917   90.5549   14.2181 N.ar    1  UNL1       -0.2309
      4 C          65.8342   91.5749   13.1191 C.ar    1  UNL1        0.0983
      5 C          66.8992   92.5372   12.6835 C.ar    1  UNL1        0.0206
      6 C          66.6508   93.4565   11.5246 C.ar    1  UNL1        0.0016
      7 C          65.3373   93.4137   10.8014 C.ar    1  UNL1        0.0016
      8 C          64.2724   92.4514   11.2370 C.ar    1  UNL1        0.0188
      9 C          64.5208   91.5320   12.3959 C.ar    1  UNL1        0.0789
     10 C          63.9806   88.7952   15.0947 C.3     1  UNL1        0.0729
     11 C          63.3497   89.1474   16.4092 C.3     1  UNL1        0.0103
     12 C          62.8783   88.0610   17.3298 C.3     1  UNL1        0.0178
     13 C          63.0377   86.6224   16.9359 C.3     1  UNL1        0.0721
     14 N          63.6686   86.2703   15.6214 N.3     1  UNL1       -0.2736
     15 C          64.1400   87.3567   14.7008 C.3     1  UNL1        0.0795
     16 C          63.8281   84.8318   15.2274 C.3     1  UNL1        0.0576
     17 C          62.7978   83.8226   15.6399 C.3     1  UNL1        0.0173
     18 C          65.0177   84.4024   14.4210 C.3     1  UNL1        0.0173
     19 C          62.2717   90.1091   12.6445 C.3     1  UNL1        0.1339
     20 C          61.6124   87.1337    9.3336 C.ar    1  UNL1        0.1387
     21 C          61.0995   88.5365    9.1945 C.ar    1  UNL1        0.0366
     22 C          61.3193   89.5282   10.2981 C.ar    1  UNL1        0.0007
     23 C          62.0520   89.1173   11.5410 C.ar    1  UNL1        0.0006
     24 C          62.5648   87.7145   11.6800 C.ar    1  UNL1        0.0007
     25 C          62.3450   86.7228   10.5763 C.ar    1  UNL1        0.0366
     26 C          60.0350   86.0011    7.6075 C.3     1  UNL1        0.2525
     27 O          61.3926   86.1419    8.2300 O.3     1  UNL1       -0.4714
@<TRIPOS>BOND
     1    26    27    1
     2    27    20    1
     3    20    21   ar
     4    21    22   ar
     5    22    23   ar
     6    23    19    1
     7    19     1    1
     8     1     2   ar
     9     2    10    1
    10    10    11    1
    11    11    12    1
    12    12    13    1
    13    13    14    1
    14    14    16    1
    15    16    17    1
    16    16    18    1
    17    14    15    1
    18     2     3   ar
    19     3     4   ar
    20     4     5   ar
    21     5     6   ar
    22     6     7   ar
    23     7     8   ar
    24     8     9   ar
    25    23    24   ar
    26    24    25   ar
    27    25    20   ar
    28     9     1   ar
    29    15    10    1
    30     9     4   ar
@<TRIPOS>MOLECULE
*****
 27 30 0 0 0
SMALL
GASTEIGER

@<TRIPOS>ATOM
      1 N          63.4600   87.7024   12.9959 N.ar    1  UNL1       -0.3106
      2 C          63.3682   89.1993   12.9708 C.ar    1  UNL1        0.1215
      3 N          62.6513   89.5987   11.7152 N.ar    1  UNL1       -0.2309
      4 C          62.3001   88.3486   10.9643 C.ar    1  UNL1        0.0983
      5 C          61.5897   88.1260    9.6621 C.ar    1  UNL1        0.0206
      6 C          61.3792   86.7315    9.1514 C.ar    1  UNL1        0.0016
      7 C          61.8790   85.5595    9.9430 C.ar    1  UNL1        0.0016
      8 C          62.5894   85.7820   11.2452 C.ar    1  UNL1        0.0188
      9 C          62.7999   87.1766   11.7559 C.ar    1  UNL1        0.0789
     10 C          63.8999   90.1330   14.0176 C.3     1  UNL1        0.0729
     11 C          63.3879   90.0515   15.4251 C.3     1  UNL1        0.0103
     12 C          63.9196   90.9851   16.4718 C.3     1  UNL1        0.0178
     13 C          64.9632   92.0003   16.1110 C.3     1  UNL1        0.0721
     14 N          65.4752   92.0818   14.7034 N.3     1  UNL1       -0.2736
     15 C          64.9435   91.1481   13.6567 C.3     1  UNL1        0.0795
     16 C          66.5189   93.0970   14.3425 C.3     1  UNL1        0.0576
     17 C          66.4256   93.8387   13.0421 C.3     1  UNL1        0.0173
     18 C          67.6557   93.3704   15.2821 C.3     1  UNL1        0.0173
     19 C          64.0997   86.8762   14.0722 C.3     1  UNL1        0.1339
     20 C          63.2053   82.4755   14.3618 C.ar    1  UNL1        0.1387
     21 C          64.3628   82.9528   13.5358 C.ar    1  UNL1        0.0366
     22 C          64.6609   84.4197   13.4392 C.ar    1  UNL1        0.0007
     23 C          63.8015   85.4094   14.1687 C.ar    1  UNL1        0.0006
     24 C          62.6440   84.9320   14.9948 C.ar    1  UNL1        0.0007
     25 C          62.3460   83.4651   15.0913 C.ar    1  UNL1        0.0366
     26 C          62.4503   80.2546   13.2447 C.3     1  UNL1        0.2525
     27 O          62.9072   81.0086   14.4584 O.3     1  UNL1       -0.4714
@<TRIPOS>BOND
     1    26    27    1
     2    27    20    1
     3    20    21   ar
     4    21    22   ar
     5    22    23   ar
     6    23    19    1
     7    19     1    1
     8     1     2   ar
     9     2    10    1
    10    10    11    1
    11    11    12    1
    12    12    13    1
    13    13    14    1
    14    14    16    1
    15    16    17    1
    16    16    18    1
    17    14    15    1
    18     2     3   ar
    19     3     4   ar
    20     4     5   ar
    21     5     6   ar
    22     6     7   ar
    23     7     8   ar
    24     8     9   ar
    25    23    24   ar
    26    24    25   ar
    27    25    20   ar
    28     9     1   ar
    29    15    10    1
    30     9     4   ar
@<TRIPOS>MOLECULE
*****
 27 30 0 0 0
SMALL
GASTEIGER

@<TRIPOS>ATOM
      1 N          63.1152   84.3717   13.2327 N.ar    1  UNL1       -0.3106
      2 C          62.9159   84.4217   14.7186 C.ar    1  UNL1        0.1215
      3 N          62.6532   83.0250   15.1982 N.ar    1  UNL1       -0.2309
      4 C          62.6900   82.1118   14.0088 C.ar    1  UNL1        0.0983
      5 C          62.5004   80.6299   13.8749 C.ar    1  UNL1        0.0206
      6 C          62.5964   79.9803   12.5263 C.ar    1  UNL1        0.0016
      7 C          62.8819   80.8127   11.3115 C.ar    1  UNL1        0.0016
      8 C          63.0715   82.2946   11.4454 C.ar    1  UNL1        0.0188
      9 C          62.9755   82.9441   12.7940 C.ar    1  UNL1        0.0789
     10 C          62.9700   85.6523   15.5745 C.3     1  UNL1        0.0729
     11 C          62.6139   85.5703   17.0293 C.3     1  UNL1        0.0103
     12 C          62.6679   86.8009   17.8852 C.3     1  UNL1        0.0178
     13 C          63.0781   88.1136   17.2864 C.3     1  UNL1        0.0721
     14 N          63.4342   88.1956   15.8316 N.3     1  UNL1       -0.2736
     15 C          63.3802   86.9650   14.9757 C.3     1  UNL1        0.0795
     16 C          63.8444   89.5083   15.2327 C.3     1  UNL1        0.0576
     17 C          64.2699   89.5769   13.7960 C.3     1  UNL1        0.0173
     18 C          63.8291   90.7524   16.0706 C.3     1  UNL1        0.0173
     19 C          63.4034   85.5436   12.3419 C.3     1  UNL1        0.1339
     20 C          60.6677   86.4747    8.8925 C.ar    1  UNL1        0.1387
     21 C          60.3557   87.0036   10.2611 C.ar    1  UNL1        0.0366
     22 C          61.2676   86.6932   11.4108 C.ar    1  UNL1        0.0007
     23 C          62.4916   85.8540   11.1921 C.ar    1  UNL1        0.0006
     24 C          62.8035   85.3251    9.8235 C.ar    1  UNL1        0.0007
     25 C          61.8915   85.6355    8.6737 C.ar    1  UNL1        0.0366
     26 C          59.2547   88.1843    7.5393 C.3     1  UNL1        0.2525
     27 O          59.7557   86.7851    7.7427 O.3     1  UNL1       -0.4714
@<TRIPOS>BOND
     1    26    27    1
     2    27    20    1
     3    20    21   ar
     4    21    22   ar
     5    22    23   ar
     6    23    19    1
     7    19     1    1
     8     1     2   ar
     9     2    10    1
    10    10    11    1
    11    11    12    1
    12    12    13    1
    13    13    14    1
    14    14    16    1
    15    16    17    1
    16    16    18    1
    17    14    15    1
    18     2     3   ar
    19     3     4   ar
    20     4     5   ar
    21     5     6   ar
    22     6     7   ar
    23     7     8   ar
    24     8     9   ar
    25    23    24   ar
    26    24    25   ar
    27    25    20   ar
    28     9     1   ar
    29    15    10    1
    30     9     4   ar
@<TRIPOS>MOLECULE
*****
 27 30 0 0 0
SMALL
GASTEIGER

@<TRIPOS>ATOM
      1 N          61.4782   87.7413   11.0365 N.ar    1  UNL1       -0.3106
      2 C          61.8852   86.2990   11.0988 C.ar    1  UNL1        0.1215
      3 N          61.4328   85.6346    9.8323 N.ar    1  UNL1       -0.2309
      4 C          60.7461   86.6663    8.9873 C.ar    1  UNL1        0.0983
      5 C          60.0989   86.5884    7.6364 C.ar    1  UNL1        0.0206
      6 C          59.4798   87.8125    7.0297 C.ar    1  UNL1        0.0016
      7 C          59.5078   89.1145    7.7739 C.ar    1  UNL1        0.0016
      8 C          60.1550   89.1925    9.1248 C.ar    1  UNL1        0.0188
      9 C          60.7741   87.9684    9.7315 C.ar    1  UNL1        0.0789
     10 C          62.6164   85.6372   12.2291 C.3     1  UNL1        0.0729
     11 C          63.5233   86.4441   13.1101 C.3     1  UNL1        0.0103
     12 C          64.2545   85.7823   14.2404 C.3     1  UNL1        0.0178
     13 C          64.0786   84.3137   14.4896 C.3     1  UNL1        0.0721
     14 N          63.1717   83.5068   13.6085 N.3     1  UNL1       -0.2736
     15 C          62.4405   84.1686   12.4783 C.3     1  UNL1        0.0795
     16 C          62.9958   82.0381   13.8577 C.3     1  UNL1        0.0576
     17 C          64.1697   81.1117   13.7407 C.3     1  UNL1        0.0173
     18 C          61.6461   81.4959   14.2240 C.3     1  UNL1        0.0173
     19 C          61.7307   88.7752   12.0935 C.3     1  UNL1        0.1339
     20 C          64.7532   92.0317   11.3795 C.ar    1  UNL1        0.1387
     21 C          64.6605   91.3766   12.7257 C.ar    1  UNL1        0.0366
     22 C          63.6530   90.2911   12.9637 C.ar    1  UNL1        0.0007
     23 C          62.7382   89.8607   11.8555 C.ar    1  UNL1        0.0006
     24 C          62.8310   90.5158   10.5093 C.ar    1  UNL1        0.0007
     25 C          63.8385   91.6013   10.2713 C.ar    1  UNL1        0.0366
     26 C          66.2293   93.9691   12.2838 C.3     1  UNL1        0.2525
     27 O          65.7607   93.1172   11.1415 O.3     1  UNL1       -0.4714
@<TRIPOS>BOND
     1    26    27    1
     2    27    20    1
     3    20    21   ar
     4    21    22   ar
     5    22    23   ar
     6    23    19    1
     7    19     1    1
     8     1     2   ar
     9     2    10    1
    10    10    11    1
    11    11    12    1
    12    12    13    1
    13    13    14    1
    14    14    16    1
    15    16    17    1
    16    16    18    1
    17    14    15    1
    18     2     3   ar
    19     3     4   ar
    20     4     5   ar
    21     5     6   ar
    22     6     7   ar
    23     7     8   ar
    24     8     9   ar
    25    23    24   ar
    26    24    25   ar
    27    25    20   ar
    28     9     1   ar
    29    15    10    1
    30     9     4   ar
@<TRIPOS>MOLECULE
*****
 27 30 0 0 0
SMALL
GASTEIGER

@<TRIPOS>ATOM
      1 N          61.6641   88.0297   10.9164 N.ar    1  UNL1       -0.3106
      2 C          62.2406   89.4142   10.8856 C.ar    1  UNL1        0.1215
      3 N          61.6659   90.1292    9.6987 N.ar    1  UNL1       -0.2309
      4 C          60.7343   89.1866    8.9961 C.ar    1  UNL1        0.0983
      5 C          59.8869   89.3423    7.7682 C.ar    1  UNL1        0.0206
      6 C          59.0383   88.2004    7.2930 C.ar    1  UNL1        0.0016
      7 C          59.0372   86.9028    8.0455 C.ar    1  UNL1        0.0016
      8 C          59.8846   86.7472    9.2733 C.ar    1  UNL1        0.0188
      9 C          60.7331   87.8891    9.7486 C.ar    1  UNL1        0.0789
     10 C          63.2197   89.9836   11.8689 C.3     1  UNL1        0.0729
     11 C          63.4687   89.2823   13.1712 C.3     1  UNL1        0.0103
     12 C          64.4478   89.8517   14.1546 C.3     1  UNL1        0.0178
     13 C          65.1781   91.1225   13.8355 C.3     1  UNL1        0.0721
     14 N          64.9292   91.8238   12.5332 N.3     1  UNL1       -0.2736
     15 C          63.9500   91.2543   11.5499 C.3     1  UNL1        0.0795
     16 C          65.6595   93.0946   12.2141 C.3     1  UNL1        0.0576
     17 C          66.4281   93.8076   13.2869 C.3     1  UNL1        0.0173
     18 C          65.6212   93.6524   10.8222 C.3     1  UNL1        0.0173
     19 C          61.9655   86.9716   11.9360 C.3     1  UNL1        0.1339
     20 C          63.5930   82.9853   10.6282 C.ar    1  UNL1        0.1387
     21 C          63.3850   84.0774    9.6211 C.ar    1  UNL1        0.0366
     22 C          62.8425   85.4061   10.0571 C.ar    1  UNL1        0.0007
     23 C          62.5080   85.6429   11.5001 C.ar    1  UNL1        0.0006
     24 C          62.7160   84.5508   12.5071 C.ar    1  UNL1        0.0007
     25 C          63.2585   83.2220   12.0711 C.ar    1  UNL1        0.0366
     26 C          63.2618   80.4380   10.2384 C.3     1  UNL1        0.2525
     27 O          64.1355   81.6565   10.1922 O.3     1  UNL1       -0.4714
@<TRIPOS>BOND
     1    26    27    1
     2    27    20    1
     3    20    21   ar
     4    21    22   ar
     5    22    23   ar
     6    23    19    1
     7    19     1    1
     8     1     2   ar
     9     2    10    1
    10    10    11    1
    11    11    12    1
    12    12    13    1
    13    13    14    1
    14    14    16    1
    15    16    17    1
    16    16    18    1
    17    14    15    1
    18     2     3   ar
    19     3     4   ar
    20     4     5   ar
    21     5     6   ar
    22     6     7   ar
    23     7     8   ar
    24     8     9   ar
    25    23    24   ar
    26    24    25   ar
    27    25    20   ar
    28     9     1   ar
    29    15    10    1
    30     9     4   ar
@<TRIPOS>MOLECULE
*****
 27 30 0 0 0
SMALL
GASTEIGER

@<TRIPOS>ATOM
      1 N          62.1906   87.1820   11.8367 N.ar    1  UNL1       -0.3106
      2 C          63.0101   86.5925   12.9462 C.ar    1  UNL1        0.1215
      3 N          63.9034   87.6700   13.4854 N.ar    1  UNL1       -0.2309
      4 C          63.6361   88.9254   12.7093 C.ar    1  UNL1        0.0983
      5 C          64.2198   90.3042   12.7987 C.ar    1  UNL1        0.0206
      6 C          63.7449   91.3814   11.8692 C.ar    1  UNL1        0.0016
      7 C          62.6863   91.0798   10.8502 C.ar    1  UNL1        0.0016
      8 C          62.1026   89.7010   10.7608 C.ar    1  UNL1        0.0188
      9 C          62.5775   88.6238   11.6903 C.ar    1  UNL1        0.0789
     10 C          62.9472   85.1744   13.4312 C.3     1  UNL1        0.0729
     11 C          62.8114   84.8886   14.8974 C.3     1  UNL1        0.0103
     12 C          62.7485   83.4706   15.3825 C.3     1  UNL1        0.0178
     13 C          62.8216   82.3384   14.4013 C.3     1  UNL1        0.0721
     14 N          62.9574   82.6242   12.9351 N.3     1  UNL1       -0.2736
     15 C          63.0203   84.0422   12.4500 C.3     1  UNL1        0.0795
     16 C          63.0305   81.4920   11.9538 C.3     1  UNL1        0.0576
     17 C          62.6300   80.1087   12.3736 C.3     1  UNL1        0.0173
     18 C          63.5040   81.7430   10.5529 C.3     1  UNL1        0.0173
     19 C          61.1643   86.4569   11.0175 C.3     1  UNL1        0.1339
     20 C          62.2067   84.9842    6.8951 C.ar    1  UNL1        0.1387
     21 C          60.8567   85.5828    7.1586 C.ar    1  UNL1        0.0366
     22 C          60.5093   86.0737    8.5327 C.ar    1  UNL1        0.0007
     23 C          61.5118   85.9660    9.6434 C.ar    1  UNL1        0.0006
     24 C          62.8617   85.3674    9.3798 C.ar    1  UNL1        0.0007
     25 C          63.2091   84.8765    8.0057 C.ar    1  UNL1        0.0366
     26 C          61.4897   83.9032    4.6439 C.3     1  UNL1        0.2525
     27 O          62.5541   84.4933    5.5209 O.3     1  UNL1       -0.4714
@<TRIPOS>BOND
     1    26    27    1
     2    27    20    1
     3    20    21   ar
     4    21    22   ar
     5    22    23   ar
     6    23    19    1
     7    19     1    1
     8     1     2   ar
     9     2    10    1
    10    10    11    1
    11    11    12    1
    12    12    13    1
    13    13    14    1
    14    14    16    1
    15    16    17    1
    16    16    18    1
    17    14    15    1
    18     2     3   ar
    19     3     4   ar
    20     4     5   ar
    21     5     6   ar
    22     6     7   ar
    23     7     8   ar
    24     8     9   ar
    25    23    24   ar
    26    24    25   ar
    27    25    20   ar
    28     9     1   ar
    29    15    10    1
    30     9     4   ar
@<TRIPOS>MOLECULE
*****
 27 30 0 0 0
SMALL
GASTEIGER

@<TRIPOS>ATOM
      1 N          61.5687   87.4407   10.4449 N.ar    1  UNL1       -0.3106
      2 C          61.8959   86.0256   10.0701 C.ar    1  UNL1        0.1215
      3 N          61.2577   85.7381    8.7434 N.ar    1  UNL1       -0.2309
      4 C          60.5361   86.9755    8.2983 C.ar    1  UNL1        0.0983
      5 C          59.7289   87.2801    7.0713 C.ar    1  UNL1        0.0206
      6 C          59.1139   88.6369    6.8958 C.ar    1  UNL1        0.0016
      7 C          59.3061   89.6891    7.9474 C.ar    1  UNL1        0.0016
      8 C          60.1134   89.3846    9.1744 C.ar    1  UNL1        0.0188
      9 C          60.7284   88.0278    9.3498 C.ar    1  UNL1        0.0789
     10 C          62.7170   85.0664   10.8798 C.3     1  UNL1        0.0729
     11 C          63.4985   83.9845   10.1951 C.3     1  UNL1        0.0103
     12 C          64.3197   83.0253   11.0048 C.3     1  UNL1        0.0178
     13 C          64.3593   83.1480   12.4993 C.3     1  UNL1        0.0721
     14 N          63.5778   84.2298   13.1840 N.3     1  UNL1       -0.2736
     15 C          62.7567   85.1890   12.3743 C.3     1  UNL1        0.0795
     16 C          63.6174   84.3524   14.6785 C.3     1  UNL1        0.0576
     17 C          64.5184   85.3629   15.3244 C.3     1  UNL1        0.0173
     18 C          62.7561   83.4647   15.5269 C.3     1  UNL1        0.0173
     19 C          62.0053   88.1450   11.6952 C.3     1  UNL1        0.1339
     20 C          64.4653   91.9029   11.4188 C.ar    1  UNL1        0.1387
     21 C          63.6919   91.4234   10.2263 C.ar    1  UNL1        0.0366
     22 C          62.8718   90.1708   10.3185 C.ar    1  UNL1        0.0007
     23 C          62.8253   89.3976   11.6031 C.ar    1  UNL1        0.0006
     24 C          63.5988   89.8771   12.7955 C.ar    1  UNL1        0.0007
     25 C          64.4188   91.1297   12.7033 C.ar    1  UNL1        0.0366
     26 C          66.1492   93.5730   12.4797 C.3     1  UNL1        0.2525
     27 O          65.2853   93.1555   11.3266 O.3     1  UNL1       -0.4714
@<TRIPOS>BOND
     1    26    27    1
     2    27    20    1
     3    20    21   ar
     4    21    22   ar
     5    22    23   ar
     6    23    19    1
     7    19     1    1
     8     1     2   ar
     9     2    10    1
    10    10    11    1
    11    11    12    1
    12    12    13    1
    13    13    14    1
    14    14    16    1
    15    16    17    1
    16    16    18    1
    17    14    15    1
    18     2     3   ar
    19     3     4   ar
    20     4     5   ar
    21     5     6   ar
    22     6     7   ar
    23     7     8   ar
    24     8     9   ar
    25    23    24   ar
    26    24    25   ar
    27    25    20   ar
    28     9     1   ar
    29    15    10    1
    30     9     4   ar
@<TRIPOS>MOLECULE
*****
 27 30 0 0 0
SMALL
GASTEIGER

@<TRIPOS>ATOM
      1 N          62.6812   85.3148   12.5080 N.ar    1  UNL1       -0.3106
      2 C          63.6171   86.0740   13.4011 C.ar    1  UNL1        0.1215
      3 N          64.3901   85.0791   14.2151 N.ar    1  UNL1       -0.2309
      4 C          63.9319   83.7051   13.8251 C.ar    1  UNL1        0.0983
      5 C          64.3400   82.3401   14.2944 C.ar    1  UNL1        0.0206
      6 C          63.6919   81.1208   13.7087 C.ar    1  UNL1        0.0016
      7 C          62.6357   81.2665   12.6536 C.ar    1  UNL1        0.0016
      8 C          62.2276   82.6314   12.1843 C.ar    1  UNL1        0.0188
      9 C          62.8757   83.8507   12.7701 C.ar    1  UNL1        0.0789
     10 C          63.7557   87.5661   13.4684 C.3     1  UNL1        0.0729
     11 C          64.3502   88.2100   14.6857 C.3     1  UNL1        0.0103
     12 C          64.4888   89.7020   14.7529 C.3     1  UNL1        0.0178
     13 C          64.0329   90.5502   13.6028 C.3     1  UNL1        0.0721
     14 N          63.4384   89.9063   12.3855 N.3     1  UNL1       -0.2736
     15 C          63.2998   88.4142   12.3183 C.3     1  UNL1        0.0795
     16 C          62.9824   90.7545   11.2354 C.3     1  UNL1        0.0576
     17 C          63.9254   91.7388   10.6093 C.3     1  UNL1        0.0173
     18 C          61.5836   90.6183   10.7113 C.3     1  UNL1        0.0173
     19 C          61.7194   85.9144   11.5254 C.3     1  UNL1        0.1339
     20 C          62.1987   85.1014    7.1255 C.ar    1  UNL1        0.1387
     21 C          63.2704   84.6807    8.0870 C.ar    1  UNL1        0.0366
     22 C          63.1106   84.9517    9.5536 C.ar    1  UNL1        0.0007
     23 C          61.8792   85.6434   10.0588 C.ar    1  UNL1        0.0006
     24 C          60.8075   86.0641    9.0972 C.ar    1  UNL1        0.0007
     25 C          60.9673   85.7931    7.6306 C.ar    1  UNL1        0.0366
     26 C          61.4735   83.8267    4.9808 C.3     1  UNL1        0.2525
     27 O          62.3585   84.8304    5.6588 O.3     1  UNL1       -0.4714
@<TRIPOS>BOND
     1    26    27    1
     2    27    20    1
     3    20    21   ar
     4    21    22   ar
     5    22    23   ar
     6    23    19    1
     7    19     1    1
     8     1     2   ar
     9     2    10    1
    10    10    11    1
    11    11    12    1
    12    12    13    1
    13    13    14    1
    14    14    16    1
    15    16    17    1
    16    16    18    1
    17    14    15    1
    18     2     3   ar
    19     3     4   ar
    20     4     5   ar
    21     5     6   ar
    22     6     7   ar
    23     7     8   ar
    24     8     9   ar
    25    23    24   ar
    26    24    25   ar
    27    25    20   ar
    28     9     1   ar
    29    15    10    1
    30     9     4   ar
