@<TRIPOS>MOLECULE
*****
 28 30 0 0 0
SMALL
GASTEIGER

@<TRIPOS>ATOM
      1 C          63.5329   89.5783   12.6403 C.ar    1  UNL1        0.1644
      2 N          62.7049   89.8431   11.4179 N.ar    1  UNL1       -0.2335
      3 C          62.1704   88.5304   10.9269 C.ar    1  UNL1        0.0939
      4 C          61.2949   88.1759    9.7617 C.ar    1  UNL1        0.0239
      5 C          60.9169   86.7453    9.5155 C.ar    1  UNL1        0.0790
      6 C          61.4145   85.6693   10.4344 C.ar    1  UNL1        0.0798
      7 C          62.2900   86.0238   11.5996 C.ar    1  UNL1        0.2972
      8 C          62.6680   87.4543   11.8458 C.ar    1  UNL1        0.1179
      9 S          63.5101   88.1019   12.9048 S.2     1  UNL1       -0.0559
     10 N          66.1720   94.1409   11.4288 N.3     1  UNL1       -0.2676
     11 C          65.4482   93.1103   10.6139 C.3     1  UNL1        0.0940
     12 C          64.8098   91.9330   11.2895 C.3     1  UNL1        0.1111
     13 N          64.8951   91.7862   12.7798 N.am    1  UNL1       -0.2716
     14 C          64.2567   90.6089   13.4553 C.2     1  UNL1        0.2731
     15 O          64.3420   90.4621   14.9456 O.2     1  UNL1       -0.2677
     16 C          65.6189   92.8169   13.5947 C.3     1  UNL1        0.1111
     17 C          66.2573   93.9942   12.9192 C.3     1  UNL1        0.0940
     18 C          66.8104   95.3182   10.7534 C.3     1  UNL1        0.1046
     19 C          67.6014   95.1223    9.4941 C.3     1  UNL1        0.1595
     20 C          68.5458   92.7627    8.9554 C.3     1  UNL1        0.1742
     21 O          68.7487   94.1564    9.4716 O.3     1  UNL1       -0.3496
     22 C          60.0413   86.3908    8.3502 C.3     1  UNL1        0.4188
     23 F          59.1657   86.0363    7.1850 F       1  UNL1       -0.1659
     24 F          58.9065   87.1493    8.9722 F       1  UNL1       -0.1659
     25 F          61.1761   85.6323    7.7282 F       1  UNL1       -0.1659
     26 N          62.7876   84.9477   12.5185 N.pl3   1  UNL1        0.0815
     27 O          62.3272   84.9080   13.9456 O.2     1  UNL1        0.0415
     28 O          63.7456   83.9113   12.0104 O.co2   1  UNL1       -0.5760
@<TRIPOS>UNITY_ATOM_ATTR
26 1
charge 1
28 1
charge -1
@<TRIPOS>BOND
     1    20    21    1
     2    21    19    1
     3    19    18    1
     4    18    10    1
     5    10    11    1
     6    11    12    1
     7    12    13    1
     8    13    14   am
     9    14    15    2
    10    14     1    1
    11     1     2   ar
    12     2     3   ar
    13     3     4   ar
    14     4     5   ar
    15     5    22    1
    16    22    23    1
    17    22    24    1
    18    22    25    1
    19     5     6   ar
    20     6     7   ar
    21     7    26    1
    22    26    27    2
    23    26    28    1
    24     7     8   ar
    25     8     9   ar
    26    13    16    1
    27    16    17    1
    28    17    10    1
    29     9     1   ar
    30     8     3   ar
@<TRIPOS>MOLECULE
*****
 28 30 0 0 0
SMALL
GASTEIGER

@<TRIPOS>ATOM
      1 C          64.1998   90.3857   14.8844 C.ar    1  UNL1        0.1644
      2 N          63.8173   90.6931   13.4669 N.ar    1  UNL1       -0.2335
      3 C          64.8396   91.6363   12.9052 C.ar    1  UNL1        0.0939
      4 C          64.9779   92.2798   11.5574 C.ar    1  UNL1        0.0239
      5 C          66.1305   93.1988   11.2798 C.ar    1  UNL1        0.0790
      6 C          67.1447   93.4743   12.3501 C.ar    1  UNL1        0.0798
      7 C          67.0064   92.8307   13.6979 C.ar    1  UNL1        0.2972
      8 C          65.8538   91.9117   13.9755 C.ar    1  UNL1        0.1179
      9 S          65.4584   91.1388   15.1987 S.2     1  UNL1       -0.0559
     10 N          63.8847   85.0182   15.4682 N.3     1  UNL1       -0.2676
     11 C          64.6300   85.9204   14.5297 C.3     1  UNL1        0.0940
     12 C          64.4865   87.4089   14.6480 C.3     1  UNL1        0.1111
     13 N          63.5979   87.9952   15.7047 N.am    1  UNL1       -0.2716
     14 C          63.4545   89.4836   15.8229 C.2     1  UNL1        0.2731
     15 O          62.5659   90.0699   16.8795 O.2     1  UNL1       -0.2677
     16 C          62.8526   87.0929   16.6431 C.3     1  UNL1        0.1111
     17 C          62.9960   85.6045   16.5248 C.3     1  UNL1        0.0940
     18 C          64.0280   83.5298   15.3499 C.3     1  UNL1        0.1046
     19 C          63.2745   82.7858   14.2876 C.3     1  UNL1        0.1595
     20 C          61.3042   81.1021   14.1050 C.3     1  UNL1        0.1742
     21 O          62.6825   81.4412   14.5901 O.3     1  UNL1       -0.3496
     22 C          66.2689   93.8424    9.9319 C.3     1  UNL1        0.4188
     23 F          66.4072   94.4860    8.5841 F       1  UNL1       -0.1659
     24 F          67.2371   92.7731    9.5208 F       1  UNL1       -0.1659
     25 F          65.3006   94.9117   10.3431 F       1  UNL1       -0.1659
     26 N          68.0206   93.1062   14.7682 N.pl3   1  UNL1        0.0815
     27 O          67.5981   93.7561   16.0524 O.2     1  UNL1        0.0415
     28 O          69.4573   92.7318   14.5542 O.co2   1  UNL1       -0.5760
@<TRIPOS>UNITY_ATOM_ATTR
26 1
charge 1
28 1
charge -1
@<TRIPOS>BOND
     1    20    21    1
     2    21    19    1
     3    19    18    1
     4    18    10    1
     5    10    11    1
     6    11    12    1
     7    12    13    1
     8    13    14   am
     9    14    15    2
    10    14     1    1
    11     1     2   ar
    12     2     3   ar
    13     3     4   ar
    14     4     5   ar
    15     5    22    1
    16    22    23    1
    17    22    24    1
    18    22    25    1
    19     5     6   ar
    20     6     7   ar
    21     7    26    1
    22    26    27    2
    23    26    28    1
    24     7     8   ar
    25     8     9   ar
    26    13    16    1
    27    16    17    1
    28    17    10    1
    29     9     1   ar
    30     8     3   ar
@<TRIPOS>MOLECULE
*****
 28 30 0 0 0
SMALL
GASTEIGER

@<TRIPOS>ATOM
      1 C          64.0626   89.5606   13.5644 C.ar    1  UNL1        0.1644
      2 N          64.3540   88.1711   14.0486 N.ar    1  UNL1       -0.2335
      3 C          63.5937   87.2100   13.1836 C.ar    1  UNL1        0.0939
      4 C          63.4963   85.7132   13.1919 C.ar    1  UNL1        0.0239
      5 C          62.6376   85.0119   12.1815 C.ar    1  UNL1        0.0790
      6 C          61.8764   85.8073   11.1629 C.ar    1  UNL1        0.0798
      7 C          61.9739   87.3041   11.1545 C.ar    1  UNL1        0.2972
      8 C          62.8325   88.0055   12.1648 C.ar    1  UNL1        0.1179
      9 S          63.1223   89.4583   12.4002 S.2     1  UNL1       -0.0559
     10 N          66.2478   94.0194   11.4209 N.3     1  UNL1       -0.2676
     11 C          65.6957   92.7503   10.8424 C.3     1  UNL1        0.0940
     12 C          65.1514   91.6871   11.7499 C.3     1  UNL1        0.1111
     13 N          65.1590   91.8930   13.2356 N.am    1  UNL1       -0.2716
     14 C          64.6147   90.8297   14.1429 C.2     1  UNL1        0.2731
     15 O          64.6223   91.0356   15.6287 O.2     1  UNL1       -0.2677
     16 C          65.7111   93.1621   13.8140 C.3     1  UNL1        0.1111
     17 C          66.2554   94.2253   12.9067 C.3     1  UNL1        0.0940
     18 C          66.7921   95.0826   10.5136 C.3     1  UNL1        0.1046
     19 C          67.6611   94.7038    9.3512 C.3     1  UNL1        0.1595
     20 C          68.8082   92.3854    9.1074 C.3     1  UNL1        0.1742
     21 O          68.8503   93.8142    9.5622 O.3     1  UNL1       -0.3496
     22 C          62.5401   83.5150   12.1899 C.3     1  UNL1        0.4188
     23 F          62.4426   82.0182   12.1982 F       1  UNL1       -0.1659
     24 F          62.2551   83.5419   13.6623 F       1  UNL1       -0.1659
     25 F          62.8251   83.4882   10.7175 F       1  UNL1       -0.1659
     26 N          61.2126   88.0996   10.1358 N.pl3   1  UNL1        0.0815
     27 O          61.8183   89.3392    9.5467 O.2     1  UNL1        0.0415
     28 O          59.8458   87.6556    9.7060 O.co2   1  UNL1       -0.5760
@<TRIPOS>UNITY_ATOM_ATTR
26 1
charge 1
28 1
charge -1
@<TRIPOS>BOND
     1    20    21    1
     2    21    19    1
     3    19    18    1
     4    18    10    1
     5    10    11    1
     6    11    12    1
     7    12    13    1
     8    13    14   am
     9    14    15    2
    10    14     1    1
    11     1     2   ar
    12     2     3   ar
    13     3     4   ar
    14     4     5   ar
    15     5    22    1
    16    22    23    1
    17    22    24    1
    18    22    25    1
    19     5     6   ar
    20     6     7   ar
    21     7    26    1
    22    26    27    2
    23    26    28    1
    24     7     8   ar
    25     8     9   ar
    26    13    16    1
    27    16    17    1
    28    17    10    1
    29     9     1   ar
    30     8     3   ar
@<TRIPOS>MOLECULE
*****
 28 30 0 0 0
SMALL
GASTEIGER

@<TRIPOS>ATOM
      1 C          62.3231   90.4882   12.0660 C.ar    1  UNL1        0.1644
      2 N          62.8342   90.2440   13.4549 N.ar    1  UNL1       -0.2335
      3 C          64.1397   90.9678   13.6023 C.ar    1  UNL1        0.0939
      4 C          65.0974   91.0865   14.7506 C.ar    1  UNL1        0.0239
      5 C          66.3509   91.8968   14.6010 C.ar    1  UNL1        0.0790
      6 C          66.6466   92.5883   13.3033 C.ar    1  UNL1        0.0798
      7 C          65.6889   92.4696   12.1550 C.ar    1  UNL1        0.2972
      8 C          64.4354   91.6594   12.3044 C.ar    1  UNL1        0.1179
      9 S          63.3127   91.3630   11.3550 S.2     1  UNL1       -0.0559
     10 N          61.1570   86.5057    8.5975 N.3     1  UNL1       -0.2676
     11 C          62.4336   87.0421    9.1742 C.3     1  UNL1        0.0940
     12 C          62.3967   88.1908   10.1381 C.3     1  UNL1        0.1111
     13 N          61.0832   88.8032   10.5254 N.am    1  UNL1       -0.2716
     14 C          61.0464   89.9519   11.4893 C.2     1  UNL1        0.2731
     15 O          59.7330   90.5642   11.8765 O.2     1  UNL1       -0.2677
     16 C          59.8066   88.2668    9.9486 C.3     1  UNL1        0.1111
     17 C          59.8435   87.1181    8.9847 C.3     1  UNL1        0.0940
     18 C          61.1938   85.3571    7.6336 C.3     1  UNL1        0.1046
     19 C          62.5090   84.7634    7.2241 C.3     1  UNL1        0.1595
     20 C          61.6911   84.0849    4.8534 C.3     1  UNL1        0.1742
     21 O          62.7972   84.5064    5.7747 O.3     1  UNL1       -0.3496
     22 C          67.3087   92.0155   15.7494 C.3     1  UNL1        0.4188
     23 F          68.2664   92.1342   16.8977 F       1  UNL1       -0.1659
     24 F          66.2551   92.7154   16.5557 F       1  UNL1       -0.1659
     25 F          68.3622   91.3156   14.9431 F       1  UNL1       -0.1659
     26 N          65.9846   93.1612   10.8572 N.pl3   1  UNL1        0.0815
     27 O          65.2893   94.4460   10.5165 O.2     1  UNL1        0.0415
     28 O          66.9755   92.5680    9.9000 O.co2   1  UNL1       -0.5760
@<TRIPOS>UNITY_ATOM_ATTR
26 1
charge 1
28 1
charge -1
@<TRIPOS>BOND
     1    20    21    1
     2    21    19    1
     3    19    18    1
     4    18    10    1
     5    10    11    1
     6    11    12    1
     7    12    13    1
     8    13    14   am
     9    14    15    2
    10    14     1    1
    11     1     2   ar
    12     2     3   ar
    13     3     4   ar
    14     4     5   ar
    15     5    22    1
    16    22    23    1
    17    22    24    1
    18    22    25    1
    19     5     6   ar
    20     6     7   ar
    21     7    26    1
    22    26    27    2
    23    26    28    1
    24     7     8   ar
    25     8     9   ar
    26    13    16    1
    27    16    17    1
    28    17    10    1
    29     9     1   ar
    30     8     3   ar
@<TRIPOS>MOLECULE
*****
 28 30 0 0 0
SMALL
GASTEIGER

@<TRIPOS>ATOM
      1 C          62.6748   86.3616   11.5662 C.ar    1  UNL1        0.1644
      2 N          62.5534   85.2716   10.5428 N.ar    1  UNL1       -0.2335
      3 C          62.6877   83.9554   11.2495 C.ar    1  UNL1        0.0939
      4 C          62.6502   82.5408   10.7521 C.ar    1  UNL1        0.0239
      5 C          62.8172   81.4026   11.7148 C.ar    1  UNL1        0.0790
      6 C          63.0217   81.6790   13.1747 C.ar    1  UNL1        0.0798
      7 C          63.0592   83.0936   13.6722 C.ar    1  UNL1        0.2972
      8 C          62.8922   84.2318   12.7096 C.ar    1  UNL1        0.1179
      9 S          62.8843   85.7189   12.9053 S.2     1  UNL1       -0.0559
     10 N          64.4267   90.7472   14.2020 N.3     1  UNL1       -0.2676
     11 C          64.5015   89.2733   14.4706 C.3     1  UNL1        0.0940
     12 C          63.8926   88.3028   13.5024 C.3     1  UNL1        0.1111
     13 N          63.2089   88.8060   12.2657 N.am    1  UNL1       -0.2716
     14 C          62.6001   87.8354   11.2976 C.2     1  UNL1        0.2731
     15 O          61.9164   88.3387   10.0610 O.2     1  UNL1       -0.2677
     16 C          63.1342   90.2800   11.9972 C.3     1  UNL1        0.1111
     17 C          63.7431   91.2505   12.9654 C.3     1  UNL1        0.0940
     18 C          65.0356   91.7178   15.1701 C.3     1  UNL1        0.1046
     19 C          66.2509   92.5050   14.7786 C.3     1  UNL1        0.1595
     20 C          66.3221   93.8841   12.5779 C.3     1  UNL1        0.1742
     21 O          66.0981   93.8123   14.0593 O.3     1  UNL1       -0.3496
     22 C          62.7797   79.9879   11.2173 C.3     1  UNL1        0.4188
     23 F          62.7422   78.5732   10.7199 F       1  UNL1       -0.1659
     24 F          63.1348   80.4630    9.8396 F       1  UNL1       -0.1659
     25 F          62.4246   79.5128   12.5951 F       1  UNL1       -0.1659
     26 N          63.2637   83.3700   15.1323 N.pl3   1  UNL1        0.0815
     27 O          64.5316   82.9373   15.8071 O.2     1  UNL1        0.0415
     28 O          62.2004   84.0792   15.9175 O.co2   1  UNL1       -0.5760
@<TRIPOS>UNITY_ATOM_ATTR
26 1
charge 1
28 1
charge -1
@<TRIPOS>BOND
     1    20    21    1
     2    21    19    1
     3    19    18    1
     4    18    10    1
     5    10    11    1
     6    11    12    1
     7    12    13    1
     8    13    14   am
     9    14    15    2
    10    14     1    1
    11     1     2   ar
    12     2     3   ar
    13     3     4   ar
    14     4     5   ar
    15     5    22    1
    16    22    23    1
    17    22    24    1
    18    22    25    1
    19     5     6   ar
    20     6     7   ar
    21     7    26    1
    22    26    27    2
    23    26    28    1
    24     7     8   ar
    25     8     9   ar
    26    13    16    1
    27    16    17    1
    28    17    10    1
    29     9     1   ar
    30     8     3   ar
@<TRIPOS>MOLECULE
*****
 28 30 0 0 0
SMALL
GASTEIGER

@<TRIPOS>ATOM
      1 C          63.2561   90.3139   11.6622 C.ar    1  UNL1        0.1644
      2 N          63.7610   90.1789   13.0682 N.ar    1  UNL1       -0.2335
      3 C          64.7562   91.2747   13.3105 C.ar    1  UNL1        0.0939
      4 C          65.5763   91.6378   14.5128 C.ar    1  UNL1        0.0239
      5 C          66.5067   92.8133   14.4588 C.ar    1  UNL1        0.0790
      6 C          66.6169   93.6255   13.2027 C.ar    1  UNL1        0.0798
      7 C          65.7968   93.2624   12.0004 C.ar    1  UNL1        0.2972
      8 C          64.8664   92.0870   12.0543 C.ar    1  UNL1        0.1179
      9 S          63.9393   91.4932   11.0356 S.2     1  UNL1       -0.0559
     10 N          62.3160   84.9886   11.7460 N.3     1  UNL1       -0.2676
     11 C          63.3266   85.8768   12.4091 C.3     1  UNL1        0.0940
     12 C          63.3031   87.3559   12.1601 C.3     1  UNL1        0.1111
     13 N          62.2690   87.9466   11.2481 N.am    1  UNL1       -0.2716
     14 C          62.2455   89.4256   10.9992 C.2     1  UNL1        0.2731
     15 O          61.2114   90.0164   10.0872 O.2     1  UNL1       -0.2677
     16 C          61.2584   87.0583   10.5851 C.3     1  UNL1        0.1111
     17 C          61.2819   85.5793   10.8341 C.3     1  UNL1        0.0940
     18 C          62.3394   83.5096   11.9950 C.3     1  UNL1        0.1046
     19 C          62.8957   82.9742   13.2810 C.3     1  UNL1        0.1595
     20 C          61.3386   81.0839   14.1483 C.3     1  UNL1        0.1742
     21 O          61.9709   82.4319   14.3301 O.3     1  UNL1       -0.3496
     22 C          67.3269   93.1764   15.6612 C.3     1  UNL1        0.4188
     23 F          68.1470   93.5396   16.8635 F       1  UNL1       -0.1659
     24 F          66.1538   92.8850   16.5493 F       1  UNL1       -0.1659
     25 F          68.4999   93.4678   14.7730 F       1  UNL1       -0.1659
     26 N          65.9070   94.0746   10.7442 N.pl3   1  UNL1        0.0815
     27 O          66.6427   93.5253    9.5579 O.2     1  UNL1        0.0415
     28 O          65.2816   95.4362   10.6742 O.co2   1  UNL1       -0.5760
@<TRIPOS>UNITY_ATOM_ATTR
26 1
charge 1
28 1
charge -1
@<TRIPOS>BOND
     1    20    21    1
     2    21    19    1
     3    19    18    1
     4    18    10    1
     5    10    11    1
     6    11    12    1
     7    12    13    1
     8    13    14   am
     9    14    15    2
    10    14     1    1
    11     1     2   ar
    12     2     3   ar
    13     3     4   ar
    14     4     5   ar
    15     5    22    1
    16    22    23    1
    17    22    24    1
    18    22    25    1
    19     5     6   ar
    20     6     7   ar
    21     7    26    1
    22    26    27    2
    23    26    28    1
    24     7     8   ar
    25     8     9   ar
    26    13    16    1
    27    16    17    1
    28    17    10    1
    29     9     1   ar
    30     8     3   ar
@<TRIPOS>MOLECULE
*****
 28 30 0 0 0
SMALL
GASTEIGER

@<TRIPOS>ATOM
      1 C          61.9775   90.3094   11.4894 C.ar    1  UNL1        0.1644
      2 N          63.0370   91.3477   11.2670 N.ar    1  UNL1       -0.2335
      3 C          63.9789   91.3060   12.4337 C.ar    1  UNL1        0.0939
      4 C          65.2096   92.0994   12.7588 C.ar    1  UNL1        0.0239
      5 C          65.9630   91.8288   14.0274 C.ar    1  UNL1        0.0790
      6 C          65.4857   90.7648   14.9707 C.ar    1  UNL1        0.0798
      7 C          64.2550   89.9713   14.6456 C.ar    1  UNL1        0.2972
      8 C          63.5016   90.2419   13.3770 C.ar    1  UNL1        0.1179
      9 S          62.2646   89.6260   12.7935 S.2     1  UNL1       -0.0559
     10 N          60.9149   86.3051    8.0129 N.3     1  UNL1       -0.2676
     11 C          62.0605   86.6070    8.9330 C.3     1  UNL1        0.0940
     12 C          62.0328   87.8412    9.7851 C.3     1  UNL1        0.1111
     13 N          60.8596   88.7734    9.7172 N.am    1  UNL1       -0.2716
     14 C          60.8319   90.0075   10.5693 C.2     1  UNL1        0.2731
     15 O          59.6588   90.9397   10.5014 O.2     1  UNL1       -0.2677
     16 C          59.7140   88.4714    8.7970 C.3     1  UNL1        0.1111
     17 C          59.7418   87.2373    7.9449 C.3     1  UNL1        0.0940
     18 C          60.9426   85.0710    7.1607 C.3     1  UNL1        0.1046
     19 C          62.2551   84.4825    6.7354 C.3     1  UNL1        0.1595
     20 C          61.6169   84.0301    4.2579 C.3     1  UNL1        0.1742
     21 O          62.6278   84.4517    5.2828 O.3     1  UNL1       -0.3496
     22 C          67.1938   92.6223   14.3525 C.3     1  UNL1        0.4188
     23 F          68.4245   93.4158   14.6777 F       1  UNL1       -0.1659
     24 F          66.5517   93.8519   13.7819 F       1  UNL1       -0.1659
     25 F          67.8359   91.3926   14.9231 F       1  UNL1       -0.1659
     26 N          63.7777   88.9073   15.5890 N.pl3   1  UNL1        0.0815
     27 O          63.9154   87.4601   15.2189 O.2     1  UNL1        0.0415
     28 O          63.1627   89.2903   16.9024 O.co2   1  UNL1       -0.5760
@<TRIPOS>UNITY_ATOM_ATTR
26 1
charge 1
28 1
charge -1
@<TRIPOS>BOND
     1    20    21    1
     2    21    19    1
     3    19    18    1
     4    18    10    1
     5    10    11    1
     6    11    12    1
     7    12    13    1
     8    13    14   am
     9    14    15    2
    10    14     1    1
    11     1     2   ar
    12     2     3   ar
    13     3     4   ar
    14     4     5   ar
    15     5    22    1
    16    22    23    1
    17    22    24    1
    18    22    25    1
    19     5     6   ar
    20     6     7   ar
    21     7    26    1
    22    26    27    2
    23    26    28    1
    24     7     8   ar
    25     8     9   ar
    26    13    16    1
    27    16    17    1
    28    17    10    1
    29     9     1   ar
    30     8     3   ar
@<TRIPOS>MOLECULE
*****
 28 30 0 0 0
SMALL
GASTEIGER

@<TRIPOS>ATOM
      1 C          63.9556   89.4208   14.7311 C.ar    1  UNL1        0.1644
      2 N          65.0862   90.4067   14.7301 N.ar    1  UNL1       -0.2335
      3 C          65.0184   91.1882   13.4516 C.ar    1  UNL1        0.0939
      4 C          65.8728   92.2928   12.9041 C.ar    1  UNL1        0.0239
      5 C          65.5548   92.8946   11.5673 C.ar    1  UNL1        0.0790
      6 C          64.3824   92.3918   10.7782 C.ar    1  UNL1        0.0798
      7 C          63.5280   91.2872   11.3258 C.ar    1  UNL1        0.2972
      8 C          63.8460   90.6854   12.6625 C.ar    1  UNL1        0.1179
      9 S          63.1892   89.5931   13.4533 S.2     1  UNL1       -0.0559
     10 N          63.7883   84.0201   14.9631 N.3     1  UNL1       -0.2676
     11 C          64.0981   85.0053   13.8752 C.3     1  UNL1        0.0940
     12 C          64.0506   86.4771   14.1606 C.3     1  UNL1        0.1111
     13 N          63.6934   86.9638   15.5337 N.am    1  UNL1       -0.2716
     14 C          63.6459   88.4356   15.8190 C.2     1  UNL1        0.2731
     15 O          63.2887   88.9223   17.1922 O.2     1  UNL1       -0.2677
     16 C          63.3837   85.9785   16.6216 C.3     1  UNL1        0.1111
     17 C          63.4312   84.5067   16.3362 C.3     1  UNL1        0.0940
     18 C          63.8358   82.5482   14.6778 C.3     1  UNL1        0.1046
     19 C          63.5269   82.0409   13.3004 C.3     1  UNL1        0.1595
     20 C          61.2280   81.0949   14.0555 C.3     1  UNL1        0.1742
     21 O          62.1410   81.5743   12.9663 O.3     1  UNL1       -0.3496
     22 C          66.4092   93.9993   11.0197 C.3     1  UNL1        0.4188
     23 F          67.2636   95.1039   10.4721 F       1  UNL1       -0.1659
     24 F          66.6670   93.1877    9.7849 F       1  UNL1       -0.1659
     25 F          66.1513   94.8108   12.2545 F       1  UNL1       -0.1659
     26 N          62.3557   90.7844   10.5367 N.pl3   1  UNL1        0.0815
     27 O          60.9592   91.0991   10.9851 O.2     1  UNL1        0.0415
     28 O          62.5797   89.9669    9.2991 O.co2   1  UNL1       -0.5760
@<TRIPOS>UNITY_ATOM_ATTR
26 1
charge 1
28 1
charge -1
@<TRIPOS>BOND
     1    20    21    1
     2    21    19    1
     3    19    18    1
     4    18    10    1
     5    10    11    1
     6    11    12    1
     7    12    13    1
     8    13    14   am
     9    14    15    2
    10    14     1    1
    11     1     2   ar
    12     2     3   ar
    13     3     4   ar
    14     4     5   ar
    15     5    22    1
    16    22    23    1
    17    22    24    1
    18    22    25    1
    19     5     6   ar
    20     6     7   ar
    21     7    26    1
    22    26    27    2
    23    26    28    1
    24     7     8   ar
    25     8     9   ar
    26    13    16    1
    27    16    17    1
    28    17    10    1
    29     9     1   ar
    30     8     3   ar
@<TRIPOS>MOLECULE
*****
 28 30 0 0 0
SMALL
GASTEIGER

@<TRIPOS>ATOM
      1 C          63.1509   90.3125   11.0070 C.ar    1  UNL1        0.1644
      2 N          63.5377   91.4188   10.0708 N.ar    1  UNL1       -0.2335
      3 C          64.4608   92.3456   10.8048 C.ar    1  UNL1        0.0939
      4 C          65.1578   93.6065   10.3872 C.ar    1  UNL1        0.0239
      5 C          66.0386   94.3338   11.3595 C.ar    1  UNL1        0.0790
      6 C          66.2223   93.8004   12.7493 C.ar    1  UNL1        0.0798
      7 C          65.5253   92.5396   13.1669 C.ar    1  UNL1        0.2972
      8 C          64.6445   91.8122   12.1947 C.ar    1  UNL1        0.1179
      9 S          63.8350   90.5556   12.3196 S.2     1  UNL1       -0.0559
     10 N          62.6897   85.2576   12.8740 N.3     1  UNL1       -0.2676
     11 C          63.6006   86.4055   13.1942 C.3     1  UNL1        0.0940
     12 C          63.4507   87.7079   12.4650 C.3     1  UNL1        0.1111
     13 N          62.3899   87.8623   11.4158 N.am    1  UNL1       -0.2716
     14 C          62.2400   89.1646   10.6868 C.2     1  UNL1        0.2731
     15 O          61.1792   89.3190    9.6376 O.2     1  UNL1       -0.2677
     16 C          61.4790   86.7143   11.0957 C.3     1  UNL1        0.1111
     17 C          61.6289   85.4120   11.8248 C.3     1  UNL1        0.0940
     18 C          62.8396   83.9553   13.6030 C.3     1  UNL1        0.1046
     19 C          62.3338   83.8202   15.0087 C.3     1  UNL1        0.1595
     20 C          62.6707   85.6602   16.8116 C.3     1  UNL1        0.1742
     21 O          61.8295   85.0266   15.7435 O.3     1  UNL1       -0.3496
     22 C          66.7356   95.5948   10.9419 C.3     1  UNL1        0.4188
     23 F          67.4327   96.8556   10.5243 F       1  UNL1       -0.1659
     24 F          65.9037   96.3768   11.9147 F       1  UNL1       -0.1659
     25 F          67.5675   94.8127    9.9691 F       1  UNL1       -0.1659
     26 N          65.7090   92.0061   14.5568 N.pl3   1  UNL1        0.0815
     27 O          67.0462   91.4803   14.9877 O.2     1  UNL1        0.0415
     28 O          64.5556   91.9984   15.5157 O.co2   1  UNL1       -0.5760
@<TRIPOS>UNITY_ATOM_ATTR
26 1
charge 1
28 1
charge -1
@<TRIPOS>BOND
     1    20    21    1
     2    21    19    1
     3    19    18    1
     4    18    10    1
     5    10    11    1
     6    11    12    1
     7    12    13    1
     8    13    14   am
     9    14    15    2
    10    14     1    1
    11     1     2   ar
    12     2     3   ar
    13     3     4   ar
    14     4     5   ar
    15     5    22    1
    16    22    23    1
    17    22    24    1
    18    22    25    1
    19     5     6   ar
    20     6     7   ar
    21     7    26    1
    22    26    27    2
    23    26    28    1
    24     7     8   ar
    25     8     9   ar
    26    13    16    1
    27    16    17    1
    28    17    10    1
    29     9     1   ar
    30     8     3   ar
