@<TRIPOS>MOLECULE
*****
 34 39 0 0 0
SMALL
GASTEIGER

@<TRIPOS>ATOM
      1 C          64.7417   84.7832   15.8338 C.3     1  UNL1        0.0722
      2 C          64.1249   85.5577   14.7070 C.ar    1  UNL1        0.1246
      3 N          64.3145   87.0206   14.4351 N.ar    1  UNL1       -0.2305
      4 C          63.5170   87.3724   13.2143 C.ar    1  UNL1        0.1015
      5 C          63.3241   88.6659   12.4798 C.ar    1  UNL1        0.0548
      6 C          62.4487   88.7140   11.2627 C.ar    1  UNL1        0.0046
      7 C          61.7662   87.4685   10.7801 C.ar    1  UNL1        0.0017
      8 C          61.9591   86.1749   11.5147 C.ar    1  UNL1        0.0191
      9 C          62.8345   86.1269   12.7318 C.ar    1  UNL1        0.0827
     10 N          63.2102   85.0054   13.6543 N.ar    1  UNL1       -0.2935
     11 C          62.7517   83.5814   13.5435 C.ar    1  UNL1        0.0703
     12 C          61.9265   82.9720   14.6379 C.ar    1  UNL1        0.0383
     13 C          61.4679   81.5481   14.5271 C.ar    1  UNL1        0.1004
     14 N          61.8346   80.7337   13.3220 N.ar    1  UNL1       -0.2414
     15 C          62.6598   81.3432   12.2277 C.ar    1  UNL1        0.1122
     16 C          63.0265   80.5287   11.0226 C.ar    1  UNL1        0.1578
     17 F          62.5680   79.1048   10.9118 F       1  UNL1       -0.2026
     18 C          63.8517   81.1382    9.9282 C.ar    1  UNL1        0.0335
     19 C          64.3102   82.5621   10.0390 C.ar    1  UNL1        0.0321
     20 C          63.9436   83.3765   11.2441 C.ar    1  UNL1        0.1431
     21 F          64.4938   84.5942   11.0518 F       1  UNL1       -0.2041
     22 C          63.1183   82.7670   12.3384 C.ar    1  UNL1        0.0635
     23 C          64.0066   89.9114   12.9624 C.ar    1  UNL1        0.1647
     24 N          64.0165   91.2386   12.2635 N.ar    1  UNL1       -0.1288
     25 N          64.8151   92.1959   13.0978 N.ar    1  UNL1       -0.1258
     26 C          65.2987   91.4603   14.3123 C.ar    1  UNL1        0.1992
     27 N          64.7990   90.0485   14.2286 N.ar    1  UNL1       -0.3187
     28 H          64.9625   89.3367   14.8889 H       1  UNL1        0.1690
     29 C          60.8908   87.5165    9.5630 C.ar    1  UNL1        0.0031
     30 C          60.4315   88.8376    9.0211 C.ar    1  UNL1        0.0207
     31 C          59.5561   88.8856    7.8040 C.ar    1  UNL1        0.0989
     32 N          59.1400   87.6125    7.1288 N.ar    1  UNL1       -0.2423
     33 C          59.5992   86.2914    7.6707 C.ar    1  UNL1        0.0989
     34 C          60.4747   86.2433    8.8878 C.ar    1  UNL1        0.0207
@<TRIPOS>BOND
     1     1     2    1
     2     2     3   ar
     3     3     4   ar
     4     4     5   ar
     5     5    23    1
     6    23    24   ar
     7    24    25   ar
     8    25    26   ar
     9    26    27   ar
    10     5     6   ar
    11     6     7   ar
    12     7    29    1
    13    29    30   ar
    14    30    31   ar
    15    31    32   ar
    16    32    33   ar
    17    33    34   ar
    18     7     8   ar
    19     8     9   ar
    20     9    10   ar
    21    10    11    1
    22    11    12   ar
    23    12    13   ar
    24    13    14   ar
    25    14    15   ar
    26    15    16   ar
    27    16    17    1
    28    16    18   ar
    29    18    19   ar
    30    19    20   ar
    31    20    21    1
    32    20    22   ar
    33    10     2   ar
    34    22    11   ar
    35     9     4   ar
    36    22    15   ar
    37    27    23   ar
    38    34    29   ar
    39    27    28    1
@<TRIPOS>MOLECULE
*****
 34 39 0 0 0
SMALL
GASTEIGER

@<TRIPOS>ATOM
      1 C          65.3997   84.3671   14.6833 C.3     1  UNL1        0.0722
      2 C          64.5723   85.3082   13.8589 C.ar    1  UNL1        0.1246
      3 N          64.3737   86.7711   14.1242 N.ar    1  UNL1       -0.2305
      4 C          63.4769   87.3188   13.0536 C.ar    1  UNL1        0.1015
      5 C          62.9382   88.6961   12.8031 C.ar    1  UNL1        0.0548
      6 C          62.0439   88.9490   11.6257 C.ar    1  UNL1        0.0046
      7 C          61.6884   87.8245   10.6988 C.ar    1  UNL1        0.0017
      8 C          62.2271   86.4472   10.9493 C.ar    1  UNL1        0.0191
      9 C          63.1214   86.1943   12.1268 C.ar    1  UNL1        0.0827
     10 N          63.7984   84.9517   12.6244 N.ar    1  UNL1       -0.2935
     11 C          63.7159   83.5914   11.9976 C.ar    1  UNL1        0.0703
     12 C          64.3739   83.3342   10.6744 C.ar    1  UNL1        0.0383
     13 C          64.2915   81.9740   10.0475 C.ar    1  UNL1        0.1004
     14 N          63.5510   80.8710   10.7439 N.ar    1  UNL1       -0.2414
     15 C          62.8930   81.1282   12.0671 C.ar    1  UNL1        0.1122
     16 C          62.1525   80.0251   12.7635 C.ar    1  UNL1        0.1578
     17 F          62.0700   78.6648   12.1367 F       1  UNL1       -0.2026
     18 C          61.4945   80.2822   14.0867 C.ar    1  UNL1        0.0335
     19 C          61.5770   81.6426   14.7135 C.ar    1  UNL1        0.0321
     20 C          62.3174   82.7456   14.0172 C.ar    1  UNL1        0.1431
     21 F          62.2136   83.8271   14.8184 F       1  UNL1       -0.2041
     22 C          62.9754   82.4884   12.6939 C.ar    1  UNL1        0.0635
     23 C          63.2937   89.8205   13.7300 C.ar    1  UNL1        0.1647
     24 N          62.7968   89.9962   15.1344 N.ar    1  UNL1       -0.1288
     25 N          63.4046   91.2510   15.6875 N.ar    1  UNL1       -0.1258
     26 C          64.2771   91.8510   14.6251 C.ar    1  UNL1        0.1992
     27 N          64.2086   90.9669   13.4153 N.ar    1  UNL1       -0.3187
     28 H          64.6811   91.1133   12.5641 H       1  UNL1        0.1690
     29 C          60.7941   88.0773    9.5214 C.ar    1  UNL1        0.0031
     30 C          60.6394   89.4685    8.9821 C.ar    1  UNL1        0.0207
     31 C          59.7451   89.7213    7.8047 C.ar    1  UNL1        0.0989
     32 N          59.0055   88.5830    7.1665 N.ar    1  UNL1       -0.2423
     33 C          59.1602   87.1919    7.7057 C.ar    1  UNL1        0.0989
     34 C          60.0545   86.9390    8.8832 C.ar    1  UNL1        0.0207
@<TRIPOS>BOND
     1     1     2    1
     2     2     3   ar
     3     3     4   ar
     4     4     5   ar
     5     5    23    1
     6    23    24   ar
     7    24    25   ar
     8    25    26   ar
     9    26    27   ar
    10     5     6   ar
    11     6     7   ar
    12     7    29    1
    13    29    30   ar
    14    30    31   ar
    15    31    32   ar
    16    32    33   ar
    17    33    34   ar
    18     7     8   ar
    19     8     9   ar
    20     9    10   ar
    21    10    11    1
    22    11    12   ar
    23    12    13   ar
    24    13    14   ar
    25    14    15   ar
    26    15    16   ar
    27    16    17    1
    28    16    18   ar
    29    18    19   ar
    30    19    20   ar
    31    20    21    1
    32    20    22   ar
    33    10     2   ar
    34    22    11   ar
    35     9     4   ar
    36    22    15   ar
    37    27    23   ar
    38    34    29   ar
    39    27    28    1
@<TRIPOS>MOLECULE
*****
 34 39 0 0 0
SMALL
GASTEIGER

@<TRIPOS>ATOM
      1 C          62.0843   91.8325   10.7930 C.3     1  UNL1        0.0722
      2 C          62.1794   90.3504   11.0031 C.ar    1  UNL1        0.1246
      3 N          61.6107   89.2940   10.1028 N.ar    1  UNL1       -0.2305
      4 C          61.9397   87.9551   10.6936 C.ar    1  UNL1        0.1015
      5 C          61.6361   86.5571   10.2429 C.ar    1  UNL1        0.0548
      6 C          62.1044   85.3879   11.0576 C.ar    1  UNL1        0.0046
      7 C          62.8764   85.6168   12.3231 C.ar    1  UNL1        0.0017
      8 C          63.1801   87.0149   12.7739 C.ar    1  UNL1        0.0191
      9 C          62.7117   88.1840   11.9592 C.ar    1  UNL1        0.0827
     10 N          62.8598   89.6644   12.1504 N.ar    1  UNL1       -0.2935
     11 C          63.5647   90.3401   13.2892 C.ar    1  UNL1        0.0703
     12 C          63.1878   90.0140   14.7039 C.ar    1  UNL1        0.0383
     13 C          63.8926   90.6897   15.8426 C.ar    1  UNL1        0.1004
     14 N          64.9743   91.6915   15.5666 N.ar    1  UNL1       -0.2414
     15 C          65.3512   92.0176   14.1518 C.ar    1  UNL1        0.1122
     16 C          66.4330   93.0195   13.8758 C.ar    1  UNL1        0.1578
     17 F          67.1378   93.6952   15.0145 F       1  UNL1       -0.2026
     18 C          66.8098   93.3457   12.4610 C.ar    1  UNL1        0.0335
     19 C          66.1050   92.6699   11.3223 C.ar    1  UNL1        0.0321
     20 C          65.0233   91.6681   11.5983 C.ar    1  UNL1        0.1431
     21 F          64.5912   91.2450   10.3914 F       1  UNL1       -0.2041
     22 C          64.6464   91.3420   13.0131 C.ar    1  UNL1        0.0635
     23 C          60.8641   86.3282    8.9773 C.ar    1  UNL1        0.1647
     24 N          61.2659   85.4226    7.8510 N.ar    1  UNL1       -0.1288
     25 N          60.2048   85.4994    6.7935 N.ar    1  UNL1       -0.1258
     26 C          59.1473   86.4523    7.2662 C.ar    1  UNL1        0.1992
     27 N          59.5547   86.9645    8.6159 N.ar    1  UNL1       -0.3187
     28 H          59.0511   87.6058    9.1676 H       1  UNL1        0.1690
     29 C          63.3448   84.4477   13.1378 C.ar    1  UNL1        0.0031
     30 C          63.3496   83.0715   12.5411 C.ar    1  UNL1        0.0207
     31 C          63.8179   81.9024   13.3559 C.ar    1  UNL1        0.0989
     32 N          64.2815   82.1095   14.7673 N.ar    1  UNL1       -0.2423
     33 C          64.2767   83.4856   15.3640 C.ar    1  UNL1        0.0989
     34 C          63.8083   84.6548   14.5493 C.ar    1  UNL1        0.0207
@<TRIPOS>BOND
     1     1     2    1
     2     2     3   ar
     3     3     4   ar
     4     4     5   ar
     5     5    23    1
     6    23    24   ar
     7    24    25   ar
     8    25    26   ar
     9    26    27   ar
    10     5     6   ar
    11     6     7   ar
    12     7    29    1
    13    29    30   ar
    14    30    31   ar
    15    31    32   ar
    16    32    33   ar
    17    33    34   ar
    18     7     8   ar
    19     8     9   ar
    20     9    10   ar
    21    10    11    1
    22    11    12   ar
    23    12    13   ar
    24    13    14   ar
    25    14    15   ar
    26    15    16   ar
    27    16    17    1
    28    16    18   ar
    29    18    19   ar
    30    19    20   ar
    31    20    21    1
    32    20    22   ar
    33    10     2   ar
    34    22    11   ar
    35     9     4   ar
    36    22    15   ar
    37    27    23   ar
    38    34    29   ar
    39    27    28    1
