@<TRIPOS>MOLECULE
*****
 30 33 0 0 0
SMALL
GASTEIGER

@<TRIPOS>ATOM
      1 C          63.4834   87.8138   16.1998 C.3     1  UNL1        0.0086
      2 C          64.3969   87.6948   15.0159 C.3     1  UNL1        0.0008
      3 C          65.0090   88.9249   14.4142 C.3     1  UNL1        0.0044
      4 C          64.7077   90.2741   14.9964 C.3     1  UNL1        0.0224
      5 C          63.7942   90.3932   16.1801 C.3     1  UNL1        0.0044
      6 C          63.1821   89.1630   16.7819 C.3     1  UNL1        0.0008
      7 C          65.3198   91.5043   14.3946 C.ar    1  UNL1       -0.0194
      8 C          66.2330   92.3659   15.2154 C.ar    1  UNL1        0.0164
      9 C          66.8451   93.5960   14.6137 C.ar    1  UNL1        0.0985
     10 N          66.5441   93.9645   13.1911 N.ar    1  UNL1       -0.2439
     11 C          65.6309   93.1028   12.3703 C.ar    1  UNL1        0.0811
     12 C          65.3299   93.4713   10.9478 C.ar    1  UNL1        0.0214
     13 C          64.4168   92.6096   10.1270 C.ar    1  UNL1        0.0312
     14 C          63.8047   91.3795   10.7287 C.ar    1  UNL1        0.1402
     15 F          62.8915   90.5178    9.9079 F       1  UNL1       -0.2042
     16 C          64.1057   91.0110   12.1513 C.ar    1  UNL1        0.0308
     17 C          65.0188   91.8727   12.9721 C.ar    1  UNL1        0.0160
     18 C          62.5365   86.5508   18.2632 C.3     1  UNL1        0.0096
     19 C          62.8713   86.5837   16.8014 C.3     1  UNL1        0.0768
     20 C          62.5940   85.3865   15.9414 C.2     1  UNL1        0.2256
     21 O          61.1788   84.9936   15.6364 O.2     1  UNL1       -0.2748
     22 N          63.7318   84.5821   15.3862 N.am    1  UNL1       -0.2839
     23 H          64.6606   84.8399   15.5864 H       1  UNL1        0.1549
     24 C          63.4545   83.3848   14.5261 C.ar    1  UNL1        0.0504
     25 C          62.3190   82.4649   14.8647 C.ar    1  UNL1        0.0155
     26 C          62.0417   81.2677   14.0046 C.ar    1  UNL1        0.0127
     27 C          62.8999   80.9904   12.8060 C.ar    1  UNL1        0.0578
     28 CL         62.6226   79.7931   11.9459 Cl      1  UNL1       -0.0822
     29 C          64.0353   81.9102   12.4675 C.ar    1  UNL1        0.0127
     30 C          64.3126   83.1075   13.3275 C.ar    1  UNL1        0.0155
@<TRIPOS>BOND
     1    19    18    1
     2    19    20    1
     3    20    21    2
     4    20    22   am
     5    22    24    1
     6    24    25   ar
     7    25    26   ar
     8    26    27   ar
     9    27    28    1
    10    27    29   ar
    11    29    30   ar
    12    19     1    1
    13     1     2    1
    14     2     3    1
    15     3     4    1
    16     4     7    1
    17     7     8   ar
    18     8     9   ar
    19     9    10   ar
    20    10    11   ar
    21    11    12   ar
    22    12    13   ar
    23    13    14   ar
    24    14    15    1
    25    14    16   ar
    26    16    17   ar
    27     4     5    1
    28     5     6    1
    29    30    24   ar
    30     6     1    1
    31    17     7   ar
    32    17    11   ar
    33    22    23    1
@<TRIPOS>MOLECULE
*****
 30 33 0 0 0
SMALL
GASTEIGER

@<TRIPOS>ATOM
      1 C          64.8571   90.8504   14.1471 C.3     1  UNL1        0.0086
      2 C          64.1512   91.0725   12.8423 C.3     1  UNL1        0.0008
      3 C          64.8917   91.6653   11.6804 C.3     1  UNL1        0.0044
      4 C          66.3382   92.0361   11.8232 C.3     1  UNL1        0.0224
      5 C          67.0441   91.8140   13.1279 C.3     1  UNL1        0.0044
      6 C          66.3036   91.2211   14.2899 C.3     1  UNL1        0.0008
      7 C          67.0787   92.6289   10.6611 C.ar    1  UNL1       -0.0194
      8 C          68.2023   91.8688   10.0212 C.ar    1  UNL1        0.0164
      9 C          68.9428   92.4616    8.8592 C.ar    1  UNL1        0.0985
     10 N          68.5596   93.8146    8.3372 N.ar    1  UNL1       -0.2439
     11 C          67.4360   94.5748    8.9771 C.ar    1  UNL1        0.0811
     12 C          67.0528   95.9278    8.4551 C.ar    1  UNL1        0.0214
     13 C          65.9291   96.6879    9.0950 C.ar    1  UNL1        0.0312
     14 C          65.1886   96.0951   10.2571 C.ar    1  UNL1        0.1402
     15 F          64.0650   96.8553   10.8970 F       1  UNL1       -0.2042
     16 C          65.5718   94.7421   10.7791 C.ar    1  UNL1        0.0308
     17 C          66.6955   93.9819   10.1391 C.ar    1  UNL1        0.0160
     18 C          63.7185   91.1251   16.4661 C.3     1  UNL1        0.0096
     19 C          64.1166   90.2576   15.3091 C.3     1  UNL1        0.0768
     20 C          63.7742   88.7972   15.3140 C.2     1  UNL1        0.2256
     21 O          62.9486   88.2242   16.4275 O.2     1  UNL1       -0.2748
     22 N          64.2575   87.9098   14.2054 N.am    1  UNL1       -0.2839
     23 H          64.7994   88.2859   13.4746 H       1  UNL1        0.1549
     24 C          63.9151   86.4494   14.2103 C.ar    1  UNL1        0.0504
     25 C          64.3387   85.5836   15.3597 C.ar    1  UNL1        0.0155
     26 C          63.9963   84.1232   15.3646 C.ar    1  UNL1        0.0127
     27 C          63.2303   83.5286   14.2201 C.ar    1  UNL1        0.0578
     28 CL         62.8879   82.0683   14.2251 Cl      1  UNL1       -0.0822
     29 C          62.8067   84.3944   13.0709 C.ar    1  UNL1        0.0127
     30 C          63.1491   85.8548   13.0659 C.ar    1  UNL1        0.0155
@<TRIPOS>BOND
     1    19    18    1
     2    19    20    1
     3    20    21    2
     4    20    22   am
     5    22    24    1
     6    24    25   ar
     7    25    26   ar
     8    26    27   ar
     9    27    28    1
    10    27    29   ar
    11    29    30   ar
    12    19     1    1
    13     1     2    1
    14     2     3    1
    15     3     4    1
    16     4     7    1
    17     7     8   ar
    18     8     9   ar
    19     9    10   ar
    20    10    11   ar
    21    11    12   ar
    22    12    13   ar
    23    13    14   ar
    24    14    15    1
    25    14    16   ar
    26    16    17   ar
    27     4     5    1
    28     5     6    1
    29    30    24   ar
    30     6     1    1
    31    17     7   ar
    32    17    11   ar
    33    22    23    1
@<TRIPOS>MOLECULE
*****
 30 33 0 0 0
SMALL
GASTEIGER

@<TRIPOS>ATOM
      1 C          62.9467   88.4942   11.9300 C.3     1  UNL1        0.0086
      2 C          63.5810   87.8998   13.1525 C.3     1  UNL1        0.0008
      3 C          64.1893   88.7939   14.1919 C.3     1  UNL1        0.0044
      4 C          64.1633   90.2825   14.0090 C.3     1  UNL1        0.0224
      5 C          63.5290   90.8769   12.7866 C.3     1  UNL1        0.0044
      6 C          62.9207   89.9828   11.7471 C.3     1  UNL1        0.0008
      7 C          64.7716   91.1766   15.0485 C.ar    1  UNL1       -0.0194
      8 C          63.9842   91.5518   16.2688 C.ar    1  UNL1        0.0164
      9 C          64.5925   92.4459   17.3083 C.ar    1  UNL1        0.0985
     10 N          65.9882   92.9648   17.1274 N.ar    1  UNL1       -0.2439
     11 C          66.7756   92.5896   15.9071 C.ar    1  UNL1        0.0811
     12 C          68.1713   93.1085   15.7263 C.ar    1  UNL1        0.0214
     13 C          68.9587   92.7334   14.5060 C.ar    1  UNL1        0.0312
     14 C          68.3504   91.8392   13.4664 C.ar    1  UNL1        0.1402
     15 F          69.1378   91.4640   12.2461 F       1  UNL1       -0.2042
     16 C          66.9547   91.3203   13.6473 C.ar    1  UNL1        0.0308
     17 C          66.1673   91.6955   14.8677 C.ar    1  UNL1        0.0160
     18 C          61.8967   88.1710    9.5757 C.3     1  UNL1        0.0096
     19 C          62.3384   87.6000   10.8906 C.3     1  UNL1        0.0768
     20 C          62.1719   86.1350   11.1660 C.2     1  UNL1        0.2256
     21 O          61.2359   85.3159   10.3276 O.2     1  UNL1       -0.2748
     22 N          62.9413   85.4890   12.2798 N.am    1  UNL1       -0.2839
     23 H          63.5556   86.0266   12.8302 H       1  UNL1        0.1549
     24 C          62.7748   84.0239   12.5552 C.ar    1  UNL1        0.0504
     25 C          62.3024   83.5630   13.9023 C.ar    1  UNL1        0.0155
     26 C          62.1359   82.0979   14.1777 C.ar    1  UNL1        0.0127
     27 C          62.4417   81.0938   13.1060 C.ar    1  UNL1        0.0578
     28 CL         62.2751   79.6288   13.3815 Cl      1  UNL1       -0.0822
     29 C          62.9140   81.5548   11.7591 C.ar    1  UNL1        0.0127
     30 C          63.0805   83.0199   11.4837 C.ar    1  UNL1        0.0155
@<TRIPOS>BOND
     1    19    18    1
     2    19    20    1
     3    20    21    2
     4    20    22   am
     5    22    24    1
     6    24    25   ar
     7    25    26   ar
     8    26    27   ar
     9    27    28    1
    10    27    29   ar
    11    29    30   ar
    12    19     1    1
    13     1     2    1
    14     2     3    1
    15     3     4    1
    16     4     7    1
    17     7     8   ar
    18     8     9   ar
    19     9    10   ar
    20    10    11   ar
    21    11    12   ar
    22    12    13   ar
    23    13    14   ar
    24    14    15    1
    25    14    16   ar
    26    16    17   ar
    27     4     5    1
    28     5     6    1
    29    30    24   ar
    30     6     1    1
    31    17     7   ar
    32    17    11   ar
    33    22    23    1
@<TRIPOS>MOLECULE
*****
 30 33 0 0 0
SMALL
GASTEIGER

@<TRIPOS>ATOM
      1 C          64.1420   89.0628   14.1142 C.3     1  UNL1        0.0086
      2 C          64.6276   88.1684   15.2162 C.3     1  UNL1        0.0008
      3 C          64.4791   86.6807   15.0951 C.3     1  UNL1        0.0044
      4 C          63.8450   86.0874   13.8720 C.3     1  UNL1        0.0224
      5 C          63.3595   86.9817   12.7701 C.3     1  UNL1        0.0044
      6 C          63.5080   88.4695   12.8911 C.3     1  UNL1        0.0008
      7 C          63.6966   84.5996   13.7510 C.ar    1  UNL1       -0.0194
      8 C          63.6694   83.7458   14.9839 C.ar    1  UNL1        0.0164
      9 C          63.5209   82.2581   14.8628 C.ar    1  UNL1        0.0985
     10 N          63.3996   81.6242   13.5087 N.ar    1  UNL1       -0.2439
     11 C          63.4268   82.4780   12.2758 C.ar    1  UNL1        0.0811
     12 C          63.3055   81.8442   10.9217 C.ar    1  UNL1        0.0214
     13 C          63.3327   82.6980    9.6888 C.ar    1  UNL1        0.0312
     14 C          63.4811   84.1858    9.8098 C.ar    1  UNL1        0.1402
     15 F          63.5083   85.0396    8.5769 F       1  UNL1       -0.2042
     16 C          63.6024   84.8196   11.1639 C.ar    1  UNL1        0.0308
     17 C          63.5753   83.9657   12.3969 C.ar    1  UNL1        0.0160
     18 C          64.0145   91.2276   15.5450 C.3     1  UNL1        0.0096
     19 C          64.2905   90.5505   14.2353 C.3     1  UNL1        0.0768
     20 C          64.7150   91.3611   13.0468 C.2     1  UNL1        0.2256
     21 O          63.8556   91.3973   11.8180 O.2     1  UNL1       -0.2748
     22 N          65.9990   92.1355   13.0870 N.am    1  UNL1       -0.2839
     23 H          66.5631   92.1118   13.8935 H       1  UNL1        0.1549
     24 C          66.4235   92.9461   11.8984 C.ar    1  UNL1        0.0504
     25 C          66.0856   94.4058   11.8267 C.ar    1  UNL1        0.0155
     26 C          66.5102   95.2164   10.6382 C.ar    1  UNL1        0.0127
     27 C          67.2725   94.5673    9.5212 C.ar    1  UNL1        0.0578
     28 CL         67.6971   95.3779    8.3327 Cl      1  UNL1       -0.0822
     29 C          67.6104   93.1076    9.5929 C.ar    1  UNL1        0.0127
     30 C          67.1859   92.2970   10.7815 C.ar    1  UNL1        0.0155
@<TRIPOS>BOND
     1    19    18    1
     2    19    20    1
     3    20    21    2
     4    20    22   am
     5    22    24    1
     6    24    25   ar
     7    25    26   ar
     8    26    27   ar
     9    27    28    1
    10    27    29   ar
    11    29    30   ar
    12    19     1    1
    13     1     2    1
    14     2     3    1
    15     3     4    1
    16     4     7    1
    17     7     8   ar
    18     8     9   ar
    19     9    10   ar
    20    10    11   ar
    21    11    12   ar
    22    12    13   ar
    23    13    14   ar
    24    14    15    1
    25    14    16   ar
    26    16    17   ar
    27     4     5    1
    28     5     6    1
    29    30    24   ar
    30     6     1    1
    31    17     7   ar
    32    17    11   ar
    33    22    23    1
@<TRIPOS>MOLECULE
*****
 30 33 0 0 0
SMALL
GASTEIGER

@<TRIPOS>ATOM
      1 C          64.4385   90.6297   14.4511 C.3     1  UNL1        0.0086
      2 C          63.7895   90.9552   13.1384 C.3     1  UNL1        0.0008
      3 C          64.3362   92.0611   12.2853 C.3     1  UNL1        0.0044
      4 C          65.5319   92.8417   12.7447 C.3     1  UNL1        0.0224
      5 C          66.1809   92.5163   14.0573 C.3     1  UNL1        0.0044
      6 C          65.6342   91.4103   14.9105 C.3     1  UNL1        0.0008
      7 C          66.0786   93.9478   11.8915 C.ar    1  UNL1       -0.0194
      8 C          65.8014   95.3778   12.2491 C.ar    1  UNL1        0.0164
      9 C          66.3481   96.4838   11.3959 C.ar    1  UNL1        0.0985
     10 N          67.1719   96.1596   10.1851 N.ar    1  UNL1       -0.2439
     11 C          67.4491   94.7295    9.8274 C.ar    1  UNL1        0.0811
     12 C          68.2730   94.4054    8.6166 C.ar    1  UNL1        0.0214
     13 C          68.5502   92.9753    8.2589 C.ar    1  UNL1        0.0312
     14 C          68.0035   91.8693    9.1121 C.ar    1  UNL1        0.1402
     15 F          68.2807   90.4392    8.7545 F       1  UNL1       -0.2042
     16 C          67.1796   92.1934   10.3230 C.ar    1  UNL1        0.0308
     17 C          66.9024   93.6236   10.6806 C.ar    1  UNL1        0.0160
     18 C          63.3893   89.8208   16.6859 C.3     1  UNL1        0.0096
     19 C          63.8918   89.5237   15.3042 C.3     1  UNL1        0.0768
     20 C          63.8476   88.1206   14.7756 C.2     1  UNL1        0.2256
     21 O          63.8168   87.8773   13.2959 O.2     1  UNL1       -0.2748
     22 N          63.8343   86.9609   15.7268 N.am    1  UNL1       -0.2839
     23 H          63.8546   87.1206   16.6981 H       1  UNL1        0.1549
     24 C          63.7901   85.5578   15.1983 C.ar    1  UNL1        0.0504
     25 C          62.6083   84.6823   15.4929 C.ar    1  UNL1        0.0155
     26 C          62.5641   83.2792   14.9643 C.ar    1  UNL1        0.0127
     27 C          63.7017   82.7517   14.1411 C.ar    1  UNL1        0.0578
     28 CL         63.6575   81.3486   13.6125 Cl      1  UNL1       -0.0822
     29 C          64.8835   83.6272   13.8465 C.ar    1  UNL1        0.0127
     30 C          64.9277   85.0303   14.3751 C.ar    1  UNL1        0.0155
@<TRIPOS>BOND
     1    19    18    1
     2    19    20    1
     3    20    21    2
     4    20    22   am
     5    22    24    1
     6    24    25   ar
     7    25    26   ar
     8    26    27   ar
     9    27    28    1
    10    27    29   ar
    11    29    30   ar
    12    19     1    1
    13     1     2    1
    14     2     3    1
    15     3     4    1
    16     4     7    1
    17     7     8   ar
    18     8     9   ar
    19     9    10   ar
    20    10    11   ar
    21    11    12   ar
    22    12    13   ar
    23    13    14   ar
    24    14    15    1
    25    14    16   ar
    26    16    17   ar
    27     4     5    1
    28     5     6    1
    29    30    24   ar
    30     6     1    1
    31    17     7   ar
    32    17    11   ar
    33    22    23    1
@<TRIPOS>MOLECULE
*****
 30 33 0 0 0
SMALL
GASTEIGER

@<TRIPOS>ATOM
      1 C          63.4885   87.1770   15.5332 C.3     1  UNL1        0.0086
      2 C          63.8949   87.1051   14.0910 C.3     1  UNL1        0.0008
      3 C          64.2838   88.3547   13.3581 C.3     1  UNL1        0.0044
      4 C          64.2663   89.6763   14.0673 C.3     1  UNL1        0.0224
      5 C          63.8599   89.7484   15.5094 C.3     1  UNL1        0.0044
      6 C          63.4710   88.4987   16.2424 C.3     1  UNL1        0.0008
      7 C          64.6552   90.9260   13.3343 C.ar    1  UNL1       -0.0194
      8 C          64.0187   91.2507   12.0154 C.ar    1  UNL1        0.0164
      9 C          64.4076   92.5003   11.2825 C.ar    1  UNL1        0.0985
     10 N          65.4330   93.4252   11.8685 N.ar    1  UNL1       -0.2439
     11 C          66.0694   93.1004   13.1874 C.ar    1  UNL1        0.0811
     12 C          67.0947   94.0253   13.7733 C.ar    1  UNL1        0.0214
     13 C          67.7311   93.7005   15.0922 C.ar    1  UNL1        0.0312
     14 C          67.3422   92.4509   15.8252 C.ar    1  UNL1        0.1402
     15 F          67.9787   92.1261   17.1440 F       1  UNL1       -0.2042
     16 C          66.3169   91.5260   15.2392 C.ar    1  UNL1        0.0308
     17 C          65.6805   91.8508   13.9203 C.ar    1  UNL1        0.0160
     18 C          62.6362   86.0068   17.6905 C.3     1  UNL1        0.0096
     19 C          63.0996   85.9274   16.2661 C.3     1  UNL1        0.0768
     20 C          63.1742   84.5984   15.5746 C.2     1  UNL1        0.2256
     21 O          64.0687   83.5217   16.1135 O.2     1  UNL1       -0.2748
     22 N          62.3541   84.3461   14.3442 N.am    1  UNL1       -0.2839
     23 H          61.7670   85.0527   13.9906 H       1  UNL1        0.1549
     24 C          62.4286   83.0171   13.6528 C.ar    1  UNL1        0.0504
     25 C          61.9207   81.7844   14.3403 C.ar    1  UNL1        0.0155
     26 C          61.9952   80.4554   13.6488 C.ar    1  UNL1        0.0127
     27 C          62.5777   80.3590   12.2698 C.ar    1  UNL1        0.0578
     28 CL         62.6522   79.0300   11.5783 Cl      1  UNL1       -0.0822
     29 C          63.0856   81.5916   11.5824 C.ar    1  UNL1        0.0127
     30 C          63.0111   82.9207   12.2739 C.ar    1  UNL1        0.0155
@<TRIPOS>BOND
     1    19    18    1
     2    19    20    1
     3    20    21    2
     4    20    22   am
     5    22    24    1
     6    24    25   ar
     7    25    26   ar
     8    26    27   ar
     9    27    28    1
    10    27    29   ar
    11    29    30   ar
    12    19     1    1
    13     1     2    1
    14     2     3    1
    15     3     4    1
    16     4     7    1
    17     7     8   ar
    18     8     9   ar
    19     9    10   ar
    20    10    11   ar
    21    11    12   ar
    22    12    13   ar
    23    13    14   ar
    24    14    15    1
    25    14    16   ar
    26    16    17   ar
    27     4     5    1
    28     5     6    1
    29    30    24   ar
    30     6     1    1
    31    17     7   ar
    32    17    11   ar
    33    22    23    1
@<TRIPOS>MOLECULE
*****
 30 33 0 0 0
SMALL
GASTEIGER

@<TRIPOS>ATOM
      1 C          63.4112   89.0699   12.4181 C.3     1  UNL1        0.0086
      2 C          64.0480   88.5716   13.6816 C.3     1  UNL1        0.0008
      3 C          63.9103   87.1302   14.0730 C.3     1  UNL1        0.0044
      4 C          63.1358   86.1869   13.2011 C.3     1  UNL1        0.0224
      5 C          62.4989   86.6851   11.9377 C.3     1  UNL1        0.0044
      6 C          62.6366   88.1266   11.5462 C.3     1  UNL1        0.0008
      7 C          62.9981   84.7454   13.5926 C.ar    1  UNL1       -0.0194
      8 C          62.7137   84.3796   15.0192 C.ar    1  UNL1        0.0164
      9 C          62.5760   82.9382   15.4106 C.ar    1  UNL1        0.0985
     10 N          62.7227   81.8626   14.3755 N.ar    1  UNL1       -0.2439
     11 C          63.0072   82.2284   12.9489 C.ar    1  UNL1        0.0811
     12 C          63.1539   81.1528   11.9137 C.ar    1  UNL1        0.0214
     13 C          63.4383   81.5186   10.4871 C.ar    1  UNL1        0.0312
     14 C          63.5760   82.9601   10.0956 C.ar    1  UNL1        0.1402
     15 F          63.8604   83.3260    8.6690 F       1  UNL1       -0.2042
     16 C          63.4293   84.0357   11.1308 C.ar    1  UNL1        0.0308
     17 C          63.1448   83.6698   12.5574 C.ar    1  UNL1        0.0160
     18 C          62.5980   91.1132   11.0350 C.3     1  UNL1        0.0096
     19 C          63.5489   90.5113   12.0267 C.3     1  UNL1        0.0768
     20 C          64.6374   91.3508   12.6269 C.2     1  UNL1        0.2256
     21 O          64.9230   92.7157   12.0743 O.2     1  UNL1       -0.2748
     22 N          65.4404   90.8253   13.7798 N.am    1  UNL1       -0.2839
     23 H          65.2530   89.9295   14.1425 H       1  UNL1        0.1549
     24 C          66.5290   91.6648   14.3800 C.ar    1  UNL1        0.0504
     25 C          67.8696   91.7444   13.7117 C.ar    1  UNL1        0.0155
     26 C          68.9582   92.5839   14.3120 C.ar    1  UNL1        0.0127
     27 C          68.7061   93.3438   15.5805 C.ar    1  UNL1        0.0578
     28 CL         69.7947   94.1833   16.1807 Cl      1  UNL1       -0.0822
     29 C          67.3656   93.2642   16.2487 C.ar    1  UNL1        0.0127
     30 C          66.2770   92.4247   15.6484 C.ar    1  UNL1        0.0155
@<TRIPOS>BOND
     1    19    18    1
     2    19    20    1
     3    20    21    2
     4    20    22   am
     5    22    24    1
     6    24    25   ar
     7    25    26   ar
     8    26    27   ar
     9    27    28    1
    10    27    29   ar
    11    29    30   ar
    12    19     1    1
    13     1     2    1
    14     2     3    1
    15     3     4    1
    16     4     7    1
    17     7     8   ar
    18     8     9   ar
    19     9    10   ar
    20    10    11   ar
    21    11    12   ar
    22    12    13   ar
    23    13    14   ar
    24    14    15    1
    25    14    16   ar
    26    16    17   ar
    27     4     5    1
    28     5     6    1
    29    30    24   ar
    30     6     1    1
    31    17     7   ar
    32    17    11   ar
    33    22    23    1
@<TRIPOS>MOLECULE
*****
 30 33 0 0 0
SMALL
GASTEIGER

@<TRIPOS>ATOM
      1 C          62.0317   88.8246   10.7450 C.3     1  UNL1        0.0086
      2 C          62.8755   88.8294   11.9852 C.3     1  UNL1        0.0008
      3 C          63.8326   89.9566   12.2368 C.3     1  UNL1        0.0044
      4 C          63.9459   91.0791   11.2482 C.3     1  UNL1        0.0224
      5 C          63.1021   91.0743   10.0081 C.3     1  UNL1        0.0044
      6 C          62.1450   89.9471    9.7564 C.3     1  UNL1        0.0008
      7 C          64.9030   92.2064   11.4999 C.ar    1  UNL1       -0.0194
      8 C          65.3698   93.0625   10.3602 C.ar    1  UNL1        0.0164
      9 C          66.3268   94.1897   10.6119 C.ar    1  UNL1        0.0985
     10 N          66.8171   94.4607   12.0033 N.ar    1  UNL1       -0.2439
     11 C          66.3503   93.6046   13.1431 C.ar    1  UNL1        0.0811
     12 C          66.8406   93.8756   14.5345 C.ar    1  UNL1        0.0214
     13 C          66.3739   93.0195   15.6743 C.ar    1  UNL1        0.0312
     14 C          65.4168   91.8922   15.4226 C.ar    1  UNL1        0.1402
     15 F          64.9500   91.0360   16.5624 F       1  UNL1       -0.2042
     16 C          64.9265   91.6212   14.0312 C.ar    1  UNL1        0.0308
     17 C          65.3933   92.4774   12.8914 C.ar    1  UNL1        0.0160
     18 C          59.7322   87.9751    9.8845 C.3     1  UNL1        0.0096
     19 C          61.0747   87.6973   10.4933 C.3     1  UNL1        0.0768
     20 C          61.4601   86.2924   10.8505 C.2     1  UNL1        0.2256
     21 O          61.2890   85.1899    9.8480 O.2     1  UNL1       -0.2748
     22 N          62.0165   85.9899   12.2102 N.am    1  UNL1       -0.2839
     23 H          62.1287   86.7136   12.8683 H       1  UNL1        0.1549
     24 C          62.4019   84.5850   12.5674 C.ar    1  UNL1        0.0504
     25 C          62.8883   83.6470   11.5026 C.ar    1  UNL1        0.0155
     26 C          63.2736   82.2420   11.8598 C.ar    1  UNL1        0.0127
     27 C          63.1727   81.7751   13.2817 C.ar    1  UNL1        0.0578
     28 CL         63.5580   80.3701   13.6389 Cl      1  UNL1       -0.0822
     29 C          62.6863   82.7131   14.3464 C.ar    1  UNL1        0.0127
     30 C          62.3009   84.1180   13.9892 C.ar    1  UNL1        0.0155
@<TRIPOS>BOND
     1    19    18    1
     2    19    20    1
     3    20    21    2
     4    20    22   am
     5    22    24    1
     6    24    25   ar
     7    25    26   ar
     8    26    27   ar
     9    27    28    1
    10    27    29   ar
    11    29    30   ar
    12    19     1    1
    13     1     2    1
    14     2     3    1
    15     3     4    1
    16     4     7    1
    17     7     8   ar
    18     8     9   ar
    19     9    10   ar
    20    10    11   ar
    21    11    12   ar
    22    12    13   ar
    23    13    14   ar
    24    14    15    1
    25    14    16   ar
    26    16    17   ar
    27     4     5    1
    28     5     6    1
    29    30    24   ar
    30     6     1    1
    31    17     7   ar
    32    17    11   ar
    33    22    23    1
@<TRIPOS>MOLECULE
*****
 30 33 0 0 0
SMALL
GASTEIGER

@<TRIPOS>ATOM
      1 C          62.7689   88.6591   11.8315 C.3     1  UNL1        0.0086
      2 C          63.4551   87.8038   12.8551 C.3     1  UNL1        0.0008
      3 C          63.5684   86.3235   12.6413 C.3     1  UNL1        0.0044
      4 C          62.9956   85.6984   11.4040 C.3     1  UNL1        0.0224
      5 C          62.3095   86.5536   10.3803 C.3     1  UNL1        0.0044
      6 C          62.1961   88.0340   10.5941 C.3     1  UNL1        0.0008
      7 C          63.1089   84.2179   11.1902 C.ar    1  UNL1       -0.0194
      8 C          63.4623   83.6807    9.8351 C.ar    1  UNL1        0.0164
      9 C          63.5756   82.2004    9.6214 C.ar    1  UNL1        0.0985
     10 N          63.3355   81.2573   10.7629 N.ar    1  UNL1       -0.2439
     11 C          62.9821   81.7945   12.1180 C.ar    1  UNL1        0.0811
     12 C          62.7420   80.8514   13.2595 C.ar    1  UNL1        0.0214
     13 C          62.3886   81.3887   14.6146 C.ar    1  UNL1        0.0312
     14 C          62.2753   82.8691   14.8284 C.ar    1  UNL1        0.1402
     15 F          61.9219   83.4064   16.1835 F       1  UNL1       -0.2042
     16 C          62.5154   83.8122   13.6869 C.ar    1  UNL1        0.0308
     17 C          62.8688   83.2749   12.3317 C.ar    1  UNL1        0.0160
     18 C          61.5906   90.9205   11.3342 C.3     1  UNL1        0.0096
     19 C          62.6557   90.1394   12.0452 C.3     1  UNL1        0.0768
     20 C          63.6074   90.8387   12.9700 C.2     1  UNL1        0.2256
     21 O          63.2238   91.0783   14.4001 O.2     1  UNL1       -0.2748
     22 N          64.9428   91.2984   12.4646 N.am    1  UNL1       -0.2839
     23 H          65.1946   91.1411   11.5259 H       1  UNL1        0.1549
     24 C          65.8945   91.9976   13.3894 C.ar    1  UNL1        0.0504
     25 C          66.0862   93.4818   13.2864 C.ar    1  UNL1        0.0155
     26 C          67.0379   94.1811   14.2111 C.ar    1  UNL1        0.0127
     27 C          67.7980   93.3962   15.2389 C.ar    1  UNL1        0.0578
     28 CL         68.7498   94.0954   16.1637 Cl      1  UNL1       -0.0822
     29 C          67.6064   91.9121   15.3419 C.ar    1  UNL1        0.0127
     30 C          66.6546   91.2128   14.4171 C.ar    1  UNL1        0.0155
@<TRIPOS>BOND
     1    19    18    1
     2    19    20    1
     3    20    21    2
     4    20    22   am
     5    22    24    1
     6    24    25   ar
     7    25    26   ar
     8    26    27   ar
     9    27    28    1
    10    27    29   ar
    11    29    30   ar
    12    19     1    1
    13     1     2    1
    14     2     3    1
    15     3     4    1
    16     4     7    1
    17     7     8   ar
    18     8     9   ar
    19     9    10   ar
    20    10    11   ar
    21    11    12   ar
    22    12    13   ar
    23    13    14   ar
    24    14    15    1
    25    14    16   ar
    26    16    17   ar
    27     4     5    1
    28     5     6    1
    29    30    24   ar
    30     6     1    1
    31    17     7   ar
    32    17    11   ar
    33    22    23    1
