@<TRIPOS>MOLECULE
*****
 30 33 0 0 0
SMALL
GASTEIGER

@<TRIPOS>ATOM
      1 C          71.4437   77.4750   12.2211 C.ar    1  UNL1        0.0515
      2 C          70.8043   77.2609   13.5610 C.ar    1  UNL1        0.0160
      3 C          70.9213   75.9305   14.2439 C.ar    1  UNL1        0.0175
      4 C          71.6777   74.8142   13.5869 C.ar    1  UNL1        0.0718
      5 C          72.3170   75.0283   12.2471 C.ar    1  UNL1        0.0730
      6 CL         73.0735   73.9119   11.5900 Cl      1  UNL1       -0.0809
      7 C          72.2000   76.3587   11.5642 C.ar    1  UNL1        0.0273
      8 N          71.7947   73.4838   14.2699 N.am    1  UNL1       -0.2002
      9 C          72.5815   73.1978   15.5145 C.2     1  UNL1        0.2589
     10 O          73.3895   74.1919   16.2947 O.2     1  UNL1       -0.2691
     11 C          72.4185   71.7430   15.8419 C.ar    1  UNL1        0.0595
     12 C          72.9637   70.8975   16.9544 C.ar    1  UNL1        0.0047
     13 C          72.6212   69.4388   17.0247 C.ar    1  UNL1        0.0010
     14 C          71.7336   68.8257   15.9824 C.ar    1  UNL1        0.0115
     15 C          71.1885   69.6713   14.8699 C.ar    1  UNL1        0.0622
     16 CL         70.3009   69.0583   13.8276 Cl      1  UNL1       -0.0821
     17 C          71.5309   71.1300   14.7996 C.ar    1  UNL1        0.0692
     18 C          71.1454   72.2058   13.8281 C.2     1  UNL1        0.2597
     19 O          70.2651   72.0339   12.6258 O.2     1  UNL1       -0.2691
     20 O          73.5753   78.3731   10.3108 O.2     1  UNL1       -0.2681
     21 C          72.3924   79.2545   10.5831 C.2     1  UNL1        0.2681
     22 N          71.3266   78.8054   11.5382 N.am    1  UNL1       -0.2791
     23 H          70.5503   79.3838   11.7169 H       1  UNL1        0.1552
     24 C          72.2754   80.5849    9.9002 C.ar    1  UNL1        0.1452
     25 N          72.3647   81.8497   10.7016 N.ar    1  UNL1       -0.2384
     26 C          72.2477   83.1801   10.0187 C.ar    1  UNL1        0.0991
     27 C          72.0414   83.2456    8.5344 C.ar    1  UNL1        0.0215
     28 C          71.9522   81.9808    7.7330 C.ar    1  UNL1        0.0147
     29 C          72.0692   80.6504    8.4159 C.ar    1  UNL1        0.0798
     30 CL         71.9799   79.3856    7.6145 Cl      1  UNL1       -0.0805
@<TRIPOS>BOND
     1    20    21    2
     2    21    22   am
     3    22     1    1
     4     1     2   ar
     5     2     3   ar
     6     3     4   ar
     7     4     8    1
     8     8     9   am
     9     9    10    2
    10     9    11    1
    11    11    12   ar
    12    12    13   ar
    13    13    14   ar
    14    14    15   ar
    15    15    16    1
    16    15    17   ar
    17    17    18    1
    18    18    19    2
    19     4     5   ar
    20     5     6    1
    21     5     7   ar
    22    21    24    1
    23    24    25   ar
    24    25    26   ar
    25    26    27   ar
    26    27    28   ar
    27    28    29   ar
    28    29    30    1
    29     7     1   ar
    30    29    24   ar
    31    18     8   am
    32    17    11   ar
    33    22    23    1
@<TRIPOS>MOLECULE
*****
 30 33 0 0 0
SMALL
GASTEIGER

@<TRIPOS>ATOM
      1 C          63.8871   90.2538   12.6520 C.ar    1  UNL1        0.0515
      2 C          64.5310   89.4877   13.7693 C.ar    1  UNL1        0.0160
      3 C          64.2892   88.0135   13.9048 C.ar    1  UNL1        0.0175
      4 C          63.4034   87.3055   12.9229 C.ar    1  UNL1        0.0718
      5 C          62.7595   88.0716   11.8056 C.ar    1  UNL1        0.0730
      6 CL         61.8737   87.3635   10.8237 Cl      1  UNL1       -0.0809
      7 C          63.0013   89.5458   11.6702 C.ar    1  UNL1        0.0273
      8 N          63.1616   85.8313   13.0584 N.am    1  UNL1       -0.2002
      9 C          62.8420   85.1035   14.3304 C.2     1  UNL1        0.2589
     10 O          62.7081   85.7220   15.6904 O.2     1  UNL1       -0.2691
     11 C          62.6798   83.6485   14.0038 C.ar    1  UNL1        0.0595
     12 C          62.3607   82.4575   14.8581 C.ar    1  UNL1        0.0047
     13 C          62.2610   81.0952   14.2384 C.ar    1  UNL1        0.0010
     14 C          62.4804   80.9238   12.7644 C.ar    1  UNL1        0.0115
     15 C          62.7995   82.1147   11.9102 C.ar    1  UNL1        0.0622
     16 CL         63.0188   81.9433   10.4362 Cl      1  UNL1       -0.0821
     17 C          62.8992   83.4771   12.5298 C.ar    1  UNL1        0.0692
     18 C          63.1970   84.8261   11.9456 C.2     1  UNL1        0.2597
     19 O          63.4803   85.1186   10.5019 O.2     1  UNL1       -0.2691
     20 O          66.3300   91.2480   11.2224 O.2     1  UNL1       -0.2681
     21 C          65.3503   92.2251   11.8018 C.2     1  UNL1        0.2681
     22 N          64.1289   91.7280   12.5166 N.am    1  UNL1       -0.2791
     23 H          63.4859   92.3693   12.8968 H       1  UNL1        0.1552
     24 C          65.5921   93.6993   11.6664 C.ar    1  UNL1        0.1452
     25 N          65.1865   94.4136   10.4112 N.ar    1  UNL1       -0.2384
     26 C          65.4283   95.8878   10.2758 C.ar    1  UNL1        0.0991
     27 C          66.0758   96.6476   11.3954 C.ar    1  UNL1        0.0215
     28 C          66.4814   95.9333   12.6505 C.ar    1  UNL1        0.0147
     29 C          66.2395   94.4591   12.7859 C.ar    1  UNL1        0.0798
     30 CL         66.6451   93.7447   14.0410 Cl      1  UNL1       -0.0805
@<TRIPOS>BOND
     1    20    21    2
     2    21    22   am
     3    22     1    1
     4     1     2   ar
     5     2     3   ar
     6     3     4   ar
     7     4     8    1
     8     8     9   am
     9     9    10    2
    10     9    11    1
    11    11    12   ar
    12    12    13   ar
    13    13    14   ar
    14    14    15   ar
    15    15    16    1
    16    15    17   ar
    17    17    18    1
    18    18    19    2
    19     4     5   ar
    20     5     6    1
    21     5     7   ar
    22    21    24    1
    23    24    25   ar
    24    25    26   ar
    25    26    27   ar
    26    27    28   ar
    27    28    29   ar
    28    29    30    1
    29     7     1   ar
    30    29    24   ar
    31    18     8   am
    32    17    11   ar
    33    22    23    1
@<TRIPOS>MOLECULE
*****
 30 33 0 0 0
SMALL
GASTEIGER

@<TRIPOS>ATOM
      1 C          73.0862   76.4925   12.5929 C.ar    1  UNL1        0.0515
      2 C          73.6320   76.3671   13.9845 C.ar    1  UNL1        0.0160
      3 C          73.3786   75.1208   14.7799 C.ar    1  UNL1        0.0175
      4 C          72.5796   74.0001   14.1839 C.ar    1  UNL1        0.0718
      5 C          72.0338   74.1255   12.7924 C.ar    1  UNL1        0.0730
      6 CL         71.2347   73.0047   12.1963 Cl      1  UNL1       -0.0809
      7 C          72.2871   75.3717   11.9969 C.ar    1  UNL1        0.0273
      8 N          72.3263   72.7539   14.9794 N.am    1  UNL1       -0.2002
      9 C          72.8045   71.3748   14.6338 C.2     1  UNL1        0.2589
     10 O          73.6201   70.9998   13.4320 O.2     1  UNL1       -0.2691
     11 C          72.3241   70.4365   15.7009 C.ar    1  UNL1        0.0595
     12 C          72.4923   68.9577   15.8872 C.ar    1  UNL1        0.0047
     13 C          71.8853   68.2780   17.0787 C.ar    1  UNL1        0.0010
     14 C          71.1101   69.0772   18.0838 C.ar    1  UNL1        0.0115
     15 C          70.9419   70.5560   17.8975 C.ar    1  UNL1        0.0622
     16 CL         70.1666   71.3552   18.9027 Cl      1  UNL1       -0.0821
     17 C          71.5488   71.2357   16.7061 C.ar    1  UNL1        0.0692
     18 C          71.5502   72.6679   16.2601 C.2     1  UNL1        0.2597
     19 O          70.8912   73.8130   16.9703 O.2     1  UNL1       -0.2691
     20 O          70.7790   78.0872   11.5281 O.2     1  UNL1       -0.2681
     21 C          72.1859   78.5361   11.2650 C.2     1  UNL1        0.2681
     22 N          73.3395   77.7387   11.7975 N.am    1  UNL1       -0.2791
     23 H          74.2629   78.0333   11.6248 H       1  UNL1        0.1552
     24 C          72.4393   79.7823   10.4696 C.ar    1  UNL1        0.1452
     25 N          71.9749   79.8707    9.0460 N.ar    1  UNL1       -0.2384
     26 C          72.2282   81.1169    8.2505 C.ar    1  UNL1        0.0991
     27 C          72.9459   82.2747    8.8786 C.ar    1  UNL1        0.0215
     28 C          73.4102   82.1863   10.3022 C.ar    1  UNL1        0.0147
     29 C          73.1569   80.9401   11.0976 C.ar    1  UNL1        0.0798
     30 CL         73.6212   80.8516   12.5212 Cl      1  UNL1       -0.0805
@<TRIPOS>BOND
     1    20    21    2
     2    21    22   am
     3    22     1    1
     4     1     2   ar
     5     2     3   ar
     6     3     4   ar
     7     4     8    1
     8     8     9   am
     9     9    10    2
    10     9    11    1
    11    11    12   ar
    12    12    13   ar
    13    13    14   ar
    14    14    15   ar
    15    15    16    1
    16    15    17   ar
    17    17    18    1
    18    18    19    2
    19     4     5   ar
    20     5     6    1
    21     5     7   ar
    22    21    24    1
    23    24    25   ar
    24    25    26   ar
    25    26    27   ar
    26    27    28   ar
    27    28    29   ar
    28    29    30    1
    29     7     1   ar
    30    29    24   ar
    31    18     8   am
    32    17    11   ar
    33    22    23    1
@<TRIPOS>MOLECULE
*****
 30 33 0 0 0
SMALL
GASTEIGER

@<TRIPOS>ATOM
      1 C          73.0506   76.4205   12.5514 C.ar    1  UNL1        0.0515
      2 C          73.6149   76.3253   13.9379 C.ar    1  UNL1        0.0160
      3 C          73.3161   75.1265   14.7886 C.ar    1  UNL1        0.0175
      4 C          72.4530   74.0230   14.2528 C.ar    1  UNL1        0.0718
      5 C          71.8886   74.1182   12.8663 C.ar    1  UNL1        0.0730
      6 CL         71.0254   73.0146   12.3305 Cl      1  UNL1       -0.0809
      7 C          72.1875   75.3169   12.0156 C.ar    1  UNL1        0.0273
      8 N          72.1541   72.8242   15.1035 N.am    1  UNL1       -0.2002
      9 C          71.2652   72.7998   16.3115 C.2     1  UNL1        0.2589
     10 O          70.5189   73.9698   16.8808 O.2     1  UNL1       -0.2691
     11 C          71.2534   71.3999   16.8502 C.ar    1  UNL1        0.0595
     12 C          70.5538   70.7821   18.0244 C.ar    1  UNL1        0.0047
     13 C          70.7359   69.3236   18.3236 C.ar    1  UNL1        0.0010
     14 C          71.6176   68.4829   17.4486 C.ar    1  UNL1        0.0115
     15 C          72.3172   69.1006   16.2743 C.ar    1  UNL1        0.0622
     16 CL         73.1990   68.2599   15.3993 Cl      1  UNL1       -0.0821
     17 C          72.1352   70.5591   15.9751 C.ar    1  UNL1        0.0692
     18 C          72.6918   71.4394   14.8957 C.2     1  UNL1        0.2597
     19 O          73.6227   71.0102   13.8006 O.2     1  UNL1       -0.2691
     20 O          70.8455   78.3066   11.7897 O.2     1  UNL1       -0.2681
     21 C          72.2469   78.5623   11.3199 C.2     1  UNL1        0.2681
     22 N          73.3494   77.6192   11.7007 N.am    1  UNL1       -0.2791
     23 H          74.2692   77.7871   11.3923 H       1  UNL1        0.1552
     24 C          72.5457   79.7610   10.4692 C.ar    1  UNL1        0.1452
     25 N          72.2562   79.7274    8.9977 N.ar    1  UNL1       -0.2384
     26 C          72.5550   80.9262    8.1470 C.ar    1  UNL1        0.0991
     27 C          73.1433   82.1585    8.7678 C.ar    1  UNL1        0.0215
     28 C          73.4329   82.1921   10.2391 C.ar    1  UNL1        0.0147
     29 C          73.1340   80.9933   11.0898 C.ar    1  UNL1        0.0798
     30 CL         73.4236   81.0268   12.5612 Cl      1  UNL1       -0.0805
@<TRIPOS>BOND
     1    20    21    2
     2    21    22   am
     3    22     1    1
     4     1     2   ar
     5     2     3   ar
     6     3     4   ar
     7     4     8    1
     8     8     9   am
     9     9    10    2
    10     9    11    1
    11    11    12   ar
    12    12    13   ar
    13    13    14   ar
    14    14    15   ar
    15    15    16    1
    16    15    17   ar
    17    17    18    1
    18    18    19    2
    19     4     5   ar
    20     5     6    1
    21     5     7   ar
    22    21    24    1
    23    24    25   ar
    24    25    26   ar
    25    26    27   ar
    26    27    28   ar
    27    28    29   ar
    28    29    30    1
    29     7     1   ar
    30    29    24   ar
    31    18     8   am
    32    17    11   ar
    33    22    23    1
@<TRIPOS>MOLECULE
*****
 30 33 0 0 0
SMALL
GASTEIGER

@<TRIPOS>ATOM
      1 C          63.8623   89.8613   12.6833 C.ar    1  UNL1        0.0515
      2 C          64.4620   89.0884   13.8202 C.ar    1  UNL1        0.0160
      3 C          64.2030   87.6162   13.9455 C.ar    1  UNL1        0.0175
      4 C          63.3442   86.9170   12.9338 C.ar    1  UNL1        0.0718
      5 C          62.7445   87.6900   11.7968 C.ar    1  UNL1        0.0730
      6 CL         61.8856   86.9909   10.7850 Cl      1  UNL1       -0.0809
      7 C          63.0035   89.1622   11.6716 C.ar    1  UNL1        0.0273
      8 N          63.0852   85.4449   13.0590 N.am    1  UNL1       -0.2002
      9 C          62.6092   84.7351   14.2917 C.2     1  UNL1        0.2589
     10 O          62.3085   85.3729   15.6157 O.2     1  UNL1       -0.2691
     11 C          62.4865   83.2756   13.9681 C.ar    1  UNL1        0.0595
     12 C          62.0621   82.0969   14.7930 C.ar    1  UNL1        0.0047
     13 C          62.0379   80.7258   14.1850 C.ar    1  UNL1        0.0010
     14 C          62.4382   80.5335   12.7523 C.ar    1  UNL1        0.0115
     15 C          62.8626   81.7122   11.9274 C.ar    1  UNL1        0.0622
     16 CL         63.2629   81.5199   10.4947 Cl      1  UNL1       -0.0821
     17 C          62.8868   83.0833   12.5354 C.ar    1  UNL1        0.0692
     18 C          63.2568   84.4240   11.9735 C.2     1  UNL1        0.2597
     19 O          63.7175   84.6960   10.5722 O.2     1  UNL1       -0.2691
     20 O          66.6686   90.9096   12.8439 O.2     1  UNL1       -0.2681
     21 C          65.5244   91.8577   12.6384 C.2     1  UNL1        0.2681
     22 N          64.1213   91.3335   12.5581 N.am    1  UNL1       -0.2791
     23 H          63.3703   91.9557   12.4231 H       1  UNL1        0.1552
     24 C          65.7834   93.3298   12.5131 C.ar    1  UNL1        0.1452
     25 N          66.2346   94.1163   13.7081 N.ar    1  UNL1       -0.2384
     26 C          66.4936   95.5884   13.5829 C.ar    1  UNL1        0.0991
     27 C          66.3014   96.2741   12.2626 C.ar    1  UNL1        0.0215
     28 C          65.8502   95.4876   11.0677 C.ar    1  UNL1        0.0147
     29 C          65.5912   94.0155   11.1930 C.ar    1  UNL1        0.0798
     30 CL         65.1401   93.2290    9.9981 Cl      1  UNL1       -0.0805
@<TRIPOS>BOND
     1    20    21    2
     2    21    22   am
     3    22     1    1
     4     1     2   ar
     5     2     3   ar
     6     3     4   ar
     7     4     8    1
     8     8     9   am
     9     9    10    2
    10     9    11    1
    11    11    12   ar
    12    12    13   ar
    13    13    14   ar
    14    14    15   ar
    15    15    16    1
    16    15    17   ar
    17    17    18    1
    18    18    19    2
    19     4     5   ar
    20     5     6    1
    21     5     7   ar
    22    21    24    1
    23    24    25   ar
    24    25    26   ar
    25    26    27   ar
    26    27    28   ar
    27    28    29   ar
    28    29    30    1
    29     7     1   ar
    30    29    24   ar
    31    18     8   am
    32    17    11   ar
    33    22    23    1
@<TRIPOS>MOLECULE
*****
 30 33 0 0 0
SMALL
GASTEIGER

@<TRIPOS>ATOM
      1 C          60.6080   91.2601    5.0380 C.ar    1  UNL1        0.0515
      2 C          59.2494   91.8441    4.7872 C.ar    1  UNL1        0.0160
      3 C          58.9906   92.6315    3.5370 C.ar    1  UNL1        0.0175
      4 C          60.0904   92.8349    2.5376 C.ar    1  UNL1        0.0718
      5 C          61.4491   92.2508    2.7883 C.ar    1  UNL1        0.0730
      6 CL         62.5490   92.4541    1.7888 Cl      1  UNL1       -0.0809
      7 C          61.7079   91.4634    4.0385 C.ar    1  UNL1        0.0273
      8 N          59.8316   93.6223    1.2873 N.am    1  UNL1       -0.2002
      9 C          59.7604   95.1171    1.1857 C.2     1  UNL1        0.2589
     10 O          59.9355   96.0870    2.3164 O.2     1  UNL1       -0.2691
     11 C          59.4834   95.4718   -0.2452 C.ar    1  UNL1        0.0595
     12 C          59.3093   96.7915   -0.9365 C.ar    1  UNL1        0.0047
     13 C          59.0351   96.8356   -2.4106 C.ar    1  UNL1        0.0010
     14 C          58.9351   95.5599   -3.1933 C.ar    1  UNL1        0.0115
     15 C          59.1092   94.2402   -2.5020 C.ar    1  UNL1        0.0622
     16 CL         59.0092   92.9645   -3.2847 Cl      1  UNL1       -0.0821
     17 C          59.3834   94.1961   -1.0279 C.ar    1  UNL1        0.0692
     18 C          59.5986   93.0531   -0.0808 C.2     1  UNL1        0.2597
     19 O          59.5834   91.5965   -0.4389 O.2     1  UNL1       -0.2691
     20 O          58.3834   89.7102    6.3221 O.2     1  UNL1       -0.2681
     21 C          59.7545   89.6977    6.9302 C.2     1  UNL1        0.2681
     22 N          60.8668   90.4727    6.2882 N.am    1  UNL1       -0.2791
     23 H          61.7667   90.4645    6.6873 H       1  UNL1        0.1552
     24 C          60.0133   88.9103    8.1804 C.ar    1  UNL1        0.1452
     25 N          60.3930   89.6180    9.4474 N.ar    1  UNL1       -0.2384
     26 C          60.6518   88.8306   10.6976 C.ar    1  UNL1        0.0991
     27 C          60.5309   87.3355   10.6809 C.ar    1  UNL1        0.0215
     28 C          60.1513   86.6279    9.4139 C.ar    1  UNL1        0.0147
     29 C          59.8925   87.4153    8.1637 C.ar    1  UNL1        0.0798
     30 CL         59.5129   86.7077    6.8968 Cl      1  UNL1       -0.0805
@<TRIPOS>BOND
     1    20    21    2
     2    21    22   am
     3    22     1    1
     4     1     2   ar
     5     2     3   ar
     6     3     4   ar
     7     4     8    1
     8     8     9   am
     9     9    10    2
    10     9    11    1
    11    11    12   ar
    12    12    13   ar
    13    13    14   ar
    14    14    15   ar
    15    15    16    1
    16    15    17   ar
    17    17    18    1
    18    18    19    2
    19     4     5   ar
    20     5     6    1
    21     5     7   ar
    22    21    24    1
    23    24    25   ar
    24    25    26   ar
    25    26    27   ar
    26    27    28   ar
    27    28    29   ar
    28    29    30    1
    29     7     1   ar
    30    29    24   ar
    31    18     8   am
    32    17    11   ar
    33    22    23    1
@<TRIPOS>MOLECULE
*****
 30 33 0 0 0
SMALL
GASTEIGER

@<TRIPOS>ATOM
      1 C          64.5496   86.7044   14.3468 C.ar    1  UNL1        0.0515
      2 C          65.3130   85.4742   14.7389 C.ar    1  UNL1        0.0160
      3 C          64.9895   84.1557   14.1012 C.ar    1  UNL1        0.0175
      4 C          63.9025   84.0672   13.0714 C.ar    1  UNL1        0.0718
      5 C          63.1390   85.2974   12.6793 C.ar    1  UNL1        0.0730
      6 CL         62.0520   85.2090   11.6494 Cl      1  UNL1       -0.0809
      7 C          63.4626   86.6160   13.3170 C.ar    1  UNL1        0.0273
      8 N          63.5790   82.7487   12.4337 N.am    1  UNL1       -0.2002
      9 C          63.7012   82.4211   10.9750 C.2     1  UNL1        0.2589
     10 O          64.1685   83.3547    9.8979 O.2     1  UNL1       -0.2691
     11 C          63.2742   80.9962   10.7824 C.ar    1  UNL1        0.0595
     12 C          63.1871   80.1309    9.5603 C.ar    1  UNL1        0.0047
     13 C          62.7139   78.7124    9.6779 C.ar    1  UNL1        0.0010
     14 C          62.3277   78.1592   11.0176 C.ar    1  UNL1        0.0115
     15 C          62.4148   79.0245   12.2397 C.ar    1  UNL1        0.0622
     16 CL         62.0287   78.4713   13.5795 Cl      1  UNL1       -0.0821
     17 C          62.8881   80.4430   12.1221 C.ar    1  UNL1        0.0692
     18 C          63.0764   81.5261   13.1426 C.2     1  UNL1        0.2597
     19 O          62.8091   81.4074   14.6139 O.2     1  UNL1       -0.2691
     20 O          63.9185   89.2609   12.9093 O.2     1  UNL1       -0.2681
     21 C          64.5576   89.3012   14.2658 C.2     1  UNL1        0.2681
     22 N          64.8731   88.0230   14.9846 N.am    1  UNL1       -0.2791
     23 H          65.2925   88.0494   15.8748 H       1  UNL1        0.1552
     24 C          64.8811   90.6198   14.9036 C.ar    1  UNL1        0.1452
     25 N          65.9509   91.4934   14.3185 N.ar    1  UNL1       -0.2384
     26 C          66.2744   92.8120   14.9562 C.ar    1  UNL1        0.0991
     27 C          65.5281   93.2569   16.1790 C.ar    1  UNL1        0.0215
     28 C          64.4584   92.3832   16.7640 C.ar    1  UNL1        0.0147
     29 C          64.1349   91.0647   16.1263 C.ar    1  UNL1        0.0798
     30 CL         63.0651   90.1910   16.7114 Cl      1  UNL1       -0.0805
@<TRIPOS>BOND
     1    20    21    2
     2    21    22   am
     3    22     1    1
     4     1     2   ar
     5     2     3   ar
     6     3     4   ar
     7     4     8    1
     8     8     9   am
     9     9    10    2
    10     9    11    1
    11    11    12   ar
    12    12    13   ar
    13    13    14   ar
    14    14    15   ar
    15    15    16    1
    16    15    17   ar
    17    17    18    1
    18    18    19    2
    19     4     5   ar
    20     5     6    1
    21     5     7   ar
    22    21    24    1
    23    24    25   ar
    24    25    26   ar
    25    26    27   ar
    26    27    28   ar
    27    28    29   ar
    28    29    30    1
    29     7     1   ar
    30    29    24   ar
    31    18     8   am
    32    17    11   ar
    33    22    23    1
@<TRIPOS>MOLECULE
*****
 30 33 0 0 0
SMALL
GASTEIGER

@<TRIPOS>ATOM
      1 C          62.8337   86.5526   12.7527 C.ar    1  UNL1        0.0515
      2 C          63.7689   87.1073   13.7860 C.ar    1  UNL1        0.0160
      3 C          64.3082   88.4993   13.6393 C.ar    1  UNL1        0.0175
      4 C          63.9124   89.3365   12.4594 C.ar    1  UNL1        0.0718
      5 C          62.9773   88.7819   11.4261 C.ar    1  UNL1        0.0730
      6 CL         62.5814   89.6191   10.2461 Cl      1  UNL1       -0.0809
      7 C          62.4379   87.3899   11.5728 C.ar    1  UNL1        0.0273
      8 N          64.4518   90.7285   12.3128 N.am    1  UNL1       -0.2002
      9 C          64.2842   91.6175   11.1163 C.2     1  UNL1        0.2589
     10 O          63.5479   91.2707    9.8564 O.2     1  UNL1       -0.2691
     11 C          64.9823   92.9143   11.4010 C.ar    1  UNL1        0.0595
     12 C          65.1499   94.1636   10.5878 C.ar    1  UNL1        0.0047
     13 C          65.9165   95.3252   11.1470 C.ar    1  UNL1        0.0010
     14 C          66.5155   95.2377   12.5194 C.ar    1  UNL1        0.0115
     15 C          66.3479   93.9885   13.3326 C.ar    1  UNL1        0.0622
     16 CL         66.9470   93.9009   14.7050 Cl      1  UNL1       -0.0821
     17 C          65.5813   92.8268   12.7734 C.ar    1  UNL1        0.0692
     18 C          65.2535   91.4759   13.3369 C.2     1  UNL1        0.2597
     19 O          65.6565   90.9625   14.6875 O.2     1  UNL1       -0.2691
     20 O          64.7175   84.2234   12.9155 O.2     1  UNL1       -0.2681
     21 C          63.2362   83.9961   12.9807 C.2     1  UNL1        0.2681
     22 N          62.2943   85.1606   12.8993 N.am    1  UNL1       -0.2791
     23 H          61.3222   85.0114   12.9421 H       1  UNL1        0.1552
     24 C          62.6968   82.6041   13.1274 C.ar    1  UNL1        0.1452
     25 N          61.7964   82.2660   14.2785 N.ar    1  UNL1       -0.2384
     26 C          61.2570   80.8741   14.4251 C.ar    1  UNL1        0.0991
     27 C          61.6181   79.8201   13.4206 C.ar    1  UNL1        0.0215
     28 C          62.5185   80.1582   12.2696 C.ar    1  UNL1        0.0147
     29 C          63.0578   81.5502   12.1229 C.ar    1  UNL1        0.0798
     30 CL         63.9582   81.8883   10.9719 Cl      1  UNL1       -0.0805
@<TRIPOS>BOND
     1    20    21    2
     2    21    22   am
     3    22     1    1
     4     1     2   ar
     5     2     3   ar
     6     3     4   ar
     7     4     8    1
     8     8     9   am
     9     9    10    2
    10     9    11    1
    11    11    12   ar
    12    12    13   ar
    13    13    14   ar
    14    14    15   ar
    15    15    16    1
    16    15    17   ar
    17    17    18    1
    18    18    19    2
    19     4     5   ar
    20     5     6    1
    21     5     7   ar
    22    21    24    1
    23    24    25   ar
    24    25    26   ar
    25    26    27   ar
    26    27    28   ar
    27    28    29   ar
    28    29    30    1
    29     7     1   ar
    30    29    24   ar
    31    18     8   am
    32    17    11   ar
    33    22    23    1
@<TRIPOS>MOLECULE
*****
 30 33 0 0 0
SMALL
GASTEIGER

@<TRIPOS>ATOM
      1 C          60.6874   88.5628    9.0937 C.ar    1  UNL1        0.0515
      2 C          60.3557   88.5826   10.5564 C.ar    1  UNL1        0.0160
      3 C          60.9719   87.5731   11.4790 C.ar    1  UNL1        0.0175
      4 C          61.9198   86.5437   10.9389 C.ar    1  UNL1        0.0718
      5 C          62.2515   86.5239    9.4762 C.ar    1  UNL1        0.0730
      6 CL         63.1995   85.4945    8.9360 Cl      1  UNL1       -0.0809
      7 C          61.6353   87.5334    8.5536 C.ar    1  UNL1        0.0273
      8 N          62.5360   85.5342   11.8615 N.am    1  UNL1       -0.2002
      9 C          63.3239   85.8380   13.1012 C.2     1  UNL1        0.2589
     10 O          63.6339   87.2047   13.6360 O.2     1  UNL1       -0.2691
     11 C          63.7473   84.5352   13.7123 C.ar    1  UNL1        0.0595
     12 C          64.5440   84.2155   14.9423 C.ar    1  UNL1        0.0047
     13 C          64.8146   82.7867   15.3102 C.ar    1  UNL1        0.0010
     14 C          64.2884   81.6777   14.4481 C.ar    1  UNL1        0.0115
     15 C          63.4917   81.9974   13.2181 C.ar    1  UNL1        0.0622
     16 CL         62.9655   80.8884   12.3560 Cl      1  UNL1       -0.0821
     17 C          63.2212   83.4262   12.8502 C.ar    1  UNL1        0.0692
     18 C          62.4725   84.0436   11.7063 C.2     1  UNL1        0.2597
     19 O          61.7817   83.3008   10.6013 O.2     1  UNL1       -0.2691
     20 O          59.1525   87.6512    6.6826 O.2     1  UNL1       -0.2681
     21 C          59.3038   89.1166    6.9656 C.2     1  UNL1        0.2681
     22 N          60.0712   89.5723    8.1712 N.am    1  UNL1       -0.2791
     23 H          60.1705   90.5340    8.3569 H       1  UNL1        0.1552
     24 C          58.6876   90.1261    6.0431 C.ar    1  UNL1        0.1452
     25 N          57.1967   90.2837    5.9919 N.ar    1  UNL1       -0.2384
     26 C          56.5805   91.2932    5.0693 C.ar    1  UNL1        0.0991
     27 C          57.4552   92.1451    4.1979 C.ar    1  UNL1        0.0215
     28 C          58.9460   91.9875    4.2491 C.ar    1  UNL1        0.0147
     29 C          59.5622   90.9780    5.1717 C.ar    1  UNL1        0.0798
     30 CL         61.0529   90.8204    5.2229 Cl      1  UNL1       -0.0805
@<TRIPOS>BOND
     1    20    21    2
     2    21    22   am
     3    22     1    1
     4     1     2   ar
     5     2     3   ar
     6     3     4   ar
     7     4     8    1
     8     8     9   am
     9     9    10    2
    10     9    11    1
    11    11    12   ar
    12    12    13   ar
    13    13    14   ar
    14    14    15   ar
    15    15    16    1
    16    15    17   ar
    17    17    18    1
    18    18    19    2
    19     4     5   ar
    20     5     6    1
    21     5     7   ar
    22    21    24    1
    23    24    25   ar
    24    25    26   ar
    25    26    27   ar
    26    27    28   ar
    27    28    29   ar
    28    29    30    1
    29     7     1   ar
    30    29    24   ar
    31    18     8   am
    32    17    11   ar
    33    22    23    1
