@<TRIPOS>MOLECULE
*****
 26 28 0 0 0
SMALL
GASTEIGER

@<TRIPOS>ATOM
      1 C          62.0404   86.0843   10.0928 C.3     1  UNL1        0.0290
      2 C          62.9421   85.1325    9.3640 C.3     1  UNL1        0.0870
      3 C          63.4860   84.1534   10.3618 C.2     1  UNL1        0.2258
      4 O          64.4297   83.0256   10.0660 O.2     1  UNL1       -0.2749
      5 N          62.9203   84.4999   11.7071 N.am    1  UNL1       -0.2757
      6 C          62.0269   85.6933   11.5409 C.3     1  UNL1        0.0940
      7 C          62.1557   87.9768   10.4446 C.3     1  UNL1        0.0002
      8 C          61.2848   87.2265    9.4809 C.3     1  UNL1        0.0047
      9 C          60.6763   86.0795    8.7298 C.3     1  UNL1        0.0172
     10 C          59.6147   86.3353    7.7014 C.3     1  UNL1        0.0686
     11 N          59.1615   87.7381    7.4242 N.3     1  UNL1       -0.2975
     12 C          59.7700   88.8850    8.1753 C.3     1  UNL1        0.0686
     13 C          60.8316   88.6293    9.2036 C.3     1  UNL1        0.0172
     14 H          58.1585   87.7651    7.6074 H       1  UNL1        0.1232
     15 C          63.1992   83.7796   12.9929 C.3     1  UNL1        0.1406
     16 C          64.4168   84.1258   13.7978 C.3     1  UNL1        0.2268
     17 O          64.2828   84.4631   15.2532 O.3     1  UNL1       -0.4736
     18 C          63.9552   85.8661   15.6708 C.ar    1  UNL1        0.1395
     19 C          63.2179   86.1141   16.9533 C.ar    1  UNL1        0.0392
     20 C          62.8903   87.5170   17.3709 C.ar    1  UNL1        0.0334
     21 C          63.3001   88.6720   16.5060 C.ar    1  UNL1        0.1499
     22 F          62.9725   90.0750   16.9236 F       1  UNL1       -0.2035
     23 C          64.0374   88.4241   15.2235 C.ar    1  UNL1        0.0988
     24 C          64.3650   87.0211   14.8059 C.ar    1  UNL1        0.0494
     25 C          64.4472   89.5791   14.3586 C.1     1  UNL1        0.1028
     26 N          64.8570   90.7341   13.4937 N.1     1  UNL1       -0.1908
@<TRIPOS>BOND
     1     7     8    1
     2     8     1    1
     3     1     2    1
     4     2     3    1
     5     3     4    2
     6     3     5   am
     7     5    15    1
     8    15    16    1
     9    16    17    1
    10    17    18    1
    11    18    19   ar
    12    19    20   ar
    13    20    21   ar
    14    21    22    1
    15    21    23   ar
    16    23    25    1
    17    25    26    3
    18    23    24   ar
    19     5     6    1
    20     8     9    1
    21     9    10    1
    22    10    11    1
    23    11    12    1
    24    12    13    1
    25    13     8    1
    26     6     1    1
    27    24    18   ar
    28    11    14    1
@<TRIPOS>MOLECULE
*****
 26 28 0 0 0
SMALL
GASTEIGER

@<TRIPOS>ATOM
      1 C          61.8269   86.0732    9.4144 C.3     1  UNL1        0.0290
      2 C          60.6074   85.9274    8.5532 C.3     1  UNL1        0.0870
      3 C          59.9428   87.2689    8.4598 C.2     1  UNL1        0.2258
      4 O          58.6896   87.5807    7.6968 O.2     1  UNL1       -0.2749
      5 N          60.7516   88.2438    9.2632 N.am    1  UNL1       -0.2757
      6 C          61.9160   87.5048    9.8532 C.3     1  UNL1        0.0940
      7 C          63.0248   85.0586    8.2945 C.3     1  UNL1        0.0002
      8 C          62.7884   84.9795    9.7737 C.3     1  UNL1        0.0047
      9 C          62.2181   85.2802   11.1281 C.3     1  UNL1        0.0172
     10 C          62.6914   84.5147   12.3281 C.3     1  UNL1        0.0686
     11 N          63.7351   83.4484   12.1737 N.3     1  UNL1       -0.2975
     12 C          64.3053   83.1477   10.8193 C.3     1  UNL1        0.0686
     13 C          63.8320   83.9132    9.6194 C.3     1  UNL1        0.0172
     14 H          63.3235   82.5814   12.5190 H       1  UNL1        0.1232
     15 C          60.4491   89.7017    9.4448 C.3     1  UNL1        0.1406
     16 C          61.0974   90.4692   10.5587 C.3     1  UNL1        0.2268
     17 O          62.5212   90.9226   10.4276 O.3     1  UNL1       -0.4736
     18 C          63.3984   91.0003   11.6420 C.ar    1  UNL1        0.1395
     19 C          64.6160   91.8763   11.6328 C.ar    1  UNL1        0.0392
     20 C          65.4931   91.9540   12.8471 C.ar    1  UNL1        0.0334
     21 C          65.1526   91.1558   14.0706 C.ar    1  UNL1        0.1499
     22 F          66.0298   91.2335   15.2849 F       1  UNL1       -0.2035
     23 C          63.9350   90.2798   14.0798 C.ar    1  UNL1        0.0988
     24 C          63.0579   90.2021   12.8655 C.ar    1  UNL1        0.0494
     25 C          63.5946   89.4816   15.3032 C.1     1  UNL1        0.1028
     26 N          63.2541   88.6833   16.5267 N.1     1  UNL1       -0.1908
@<TRIPOS>BOND
     1     7     8    1
     2     8     1    1
     3     1     2    1
     4     2     3    1
     5     3     4    2
     6     3     5   am
     7     5    15    1
     8    15    16    1
     9    16    17    1
    10    17    18    1
    11    18    19   ar
    12    19    20   ar
    13    20    21   ar
    14    21    22    1
    15    21    23   ar
    16    23    25    1
    17    25    26    3
    18    23    24   ar
    19     5     6    1
    20     8     9    1
    21     9    10    1
    22    10    11    1
    23    11    12    1
    24    12    13    1
    25    13     8    1
    26     6     1    1
    27    24    18   ar
    28    11    14    1
@<TRIPOS>MOLECULE
*****
 26 28 0 0 0
SMALL
GASTEIGER

@<TRIPOS>ATOM
      1 C          62.0048   86.1075    9.6128 C.3     1  UNL1        0.0290
      2 C          60.9016   86.2124    8.6018 C.3     1  UNL1        0.0870
      3 C          60.3199   87.5921    8.6920 C.2     1  UNL1        0.2258
      4 O          59.1925   88.1297    7.8614 O.2     1  UNL1       -0.2749
      5 N          61.0636   88.3398    9.7588 N.am    1  UNL1       -0.2757
      6 C          62.1049   87.4223   10.3278 C.3     1  UNL1        0.0940
      7 C          63.0935   85.0833    8.3945 C.3     1  UNL1        0.0002
      8 C          62.8580   84.8998    9.8645 C.3     1  UNL1        0.0047
      9 C          62.3262   85.1357   11.2471 C.3     1  UNL1        0.0172
     10 C          62.7294   84.2276   12.3709 C.3     1  UNL1        0.0686
     11 N          63.6644   83.0836   12.1120 N.3     1  UNL1       -0.2975
     12 C          64.1962   82.8477   10.7295 C.3     1  UNL1        0.0686
     13 C          63.7931   83.7558    9.6057 C.3     1  UNL1        0.0172
     14 H          63.1728   82.2334   12.3874 H       1  UNL1        0.1232
     15 C          60.8104   89.7564   10.1821 C.3     1  UNL1        0.1406
     16 C          61.9183   90.5684   10.7850 C.3     1  UNL1        0.2268
     17 O          62.4226   90.2448   12.1601 O.3     1  UNL1       -0.4736
     18 C          63.7202   90.8254   12.6390 C.ar    1  UNL1        0.1395
     19 C          64.3251   90.3493   13.9263 C.ar    1  UNL1        0.0392
     20 C          65.6227   90.9299   14.4051 C.ar    1  UNL1        0.0334
     21 C          66.3152   91.9866   13.5966 C.ar    1  UNL1        0.1499
     22 F          67.6128   92.5672   14.0755 F       1  UNL1       -0.2035
     23 C          65.7102   92.4627   12.3093 C.ar    1  UNL1        0.0988
     24 C          64.4127   91.8821   11.8305 C.ar    1  UNL1        0.0494
     25 C          66.4028   93.5194   11.5008 C.1     1  UNL1        0.1028
     26 N          67.0954   94.5762   10.6923 N.1     1  UNL1       -0.1908
@<TRIPOS>BOND
     1     7     8    1
     2     8     1    1
     3     1     2    1
     4     2     3    1
     5     3     4    2
     6     3     5   am
     7     5    15    1
     8    15    16    1
     9    16    17    1
    10    17    18    1
    11    18    19   ar
    12    19    20   ar
    13    20    21   ar
    14    21    22    1
    15    21    23   ar
    16    23    25    1
    17    25    26    3
    18    23    24   ar
    19     5     6    1
    20     8     9    1
    21     9    10    1
    22    10    11    1
    23    11    12    1
    24    12    13    1
    25    13     8    1
    26     6     1    1
    27    24    18   ar
    28    11    14    1
@<TRIPOS>MOLECULE
*****
 26 28 0 0 0
SMALL
GASTEIGER

@<TRIPOS>ATOM
      1 C          64.0318   89.1583   14.6247 C.3     1  UNL1        0.0290
      2 C          63.4452   89.2842   15.9995 C.3     1  UNL1        0.0870
      3 C          63.3436   87.9082   16.5878 C.2     1  UNL1        0.2258
      4 O          62.8116   87.5682   17.9485 O.2     1  UNL1       -0.2749
      5 N          63.8672   86.9318   15.5766 N.am    1  UNL1       -0.2757
      6 C          64.2925   87.7045   14.3633 C.3     1  UNL1        0.0940
      7 C          63.4126   89.4436   12.8208 C.3     1  UNL1        0.0002
      8 C          64.3088   90.2880   13.6775 C.3     1  UNL1        0.0047
      9 C          65.1089   90.7400   14.8631 C.3     1  UNL1        0.0172
     10 C          65.8747   92.0284   14.8040 C.3     1  UNL1        0.0686
     11 N          65.8405   92.8648   13.5593 N.3     1  UNL1       -0.2975
     12 C          65.0405   92.4128   12.3738 C.3     1  UNL1        0.0686
     13 C          64.2747   91.1244   12.4328 C.3     1  UNL1        0.0172
     14 H          66.8055   92.9623   13.2435 H       1  UNL1        0.1232
     15 C          63.9509   85.4441   15.7485 C.3     1  UNL1        0.1406
     16 C          63.7746   84.5411   14.5637 C.3     1  UNL1        0.2268
     17 O          62.5300   84.6302   13.7314 O.3     1  UNL1       -0.4736
     18 C          62.6325   84.8088   12.2455 C.ar    1  UNL1        0.1395
     19 C          63.4599   83.8589   11.4313 C.ar    1  UNL1        0.0392
     20 C          63.5624   84.0375    9.9455 C.ar    1  UNL1        0.0334
     21 C          62.8376   85.1660    9.2740 C.ar    1  UNL1        0.1499
     22 F          62.9401   85.3446    7.7881 F       1  UNL1       -0.2035
     23 C          62.0102   86.1159   10.0882 C.ar    1  UNL1        0.0988
     24 C          61.9077   85.9373   11.5740 C.ar    1  UNL1        0.0494
     25 C          61.2853   87.2445    9.4166 C.1     1  UNL1        0.1028
     26 N          60.5604   88.3730    8.7451 N.1     1  UNL1       -0.1908
@<TRIPOS>BOND
     1     7     8    1
     2     8     1    1
     3     1     2    1
     4     2     3    1
     5     3     4    2
     6     3     5   am
     7     5    15    1
     8    15    16    1
     9    16    17    1
    10    17    18    1
    11    18    19   ar
    12    19    20   ar
    13    20    21   ar
    14    21    22    1
    15    21    23   ar
    16    23    25    1
    17    25    26    3
    18    23    24   ar
    19     5     6    1
    20     8     9    1
    21     9    10    1
    22    10    11    1
    23    11    12    1
    24    12    13    1
    25    13     8    1
    26     6     1    1
    27    24    18   ar
    28    11    14    1
@<TRIPOS>MOLECULE
*****
 26 28 0 0 0
SMALL
GASTEIGER

@<TRIPOS>ATOM
      1 C          64.0752   89.3377   14.6065 C.3     1  UNL1        0.0290
      2 C          63.4581   89.4858   15.9657 C.3     1  UNL1        0.0870
      3 C          63.3671   88.1225   16.5845 C.2     1  UNL1        0.2258
      4 O          62.8127   87.8055   17.9417 O.2     1  UNL1       -0.2749
      5 N          63.9279   87.1317   15.6078 N.am    1  UNL1       -0.2757
      6 C          64.3655   87.8828   14.3853 C.3     1  UNL1        0.0940
      7 C          63.4296   89.6068   12.8095 C.3     1  UNL1        0.0002
      8 C          64.3531   90.4493   13.6385 C.3     1  UNL1        0.0047
      9 C          65.1802   90.9058   14.8037 C.3     1  UNL1        0.0172
     10 C          65.9644   92.1812   14.7131 C.3     1  UNL1        0.0686
     11 N          65.9215   93.0003   13.4571 N.3     1  UNL1       -0.2975
     12 C          65.0945   92.5438   12.2919 C.3     1  UNL1        0.0686
     13 C          64.3103   91.2684   12.3826 C.3     1  UNL1        0.0172
     14 H          66.8823   93.0784   13.1236 H       1  UNL1        0.1232
     15 C          64.0327   85.6501   15.8168 C.3     1  UNL1        0.1406
     16 C          62.7892   84.8195   15.9349 C.3     1  UNL1        0.2268
     17 O          61.9872   84.4916   14.7106 O.3     1  UNL1       -0.4736
     18 C          62.6729   83.9723   13.4816 C.ar    1  UNL1        0.1395
     19 C          63.5283   82.7429   13.5630 C.ar    1  UNL1        0.0392
     20 C          64.2139   82.2237   12.3341 C.ar    1  UNL1        0.0334
     21 C          64.0441   82.9338   11.0238 C.ar    1  UNL1        0.1499
     22 F          64.7298   82.4145    9.7948 F       1  UNL1       -0.2035
     23 C          63.1886   84.1632   10.9424 C.ar    1  UNL1        0.0988
     24 C          62.5030   84.6825   12.1713 C.ar    1  UNL1        0.0494
     25 C          63.0187   84.8734    9.6321 C.1     1  UNL1        0.1028
     26 N          62.8489   85.5835    8.3219 N.1     1  UNL1       -0.1908
@<TRIPOS>BOND
     1     7     8    1
     2     8     1    1
     3     1     2    1
     4     2     3    1
     5     3     4    2
     6     3     5   am
     7     5    15    1
     8    15    16    1
     9    16    17    1
    10    17    18    1
    11    18    19   ar
    12    19    20   ar
    13    20    21   ar
    14    21    22    1
    15    21    23   ar
    16    23    25    1
    17    25    26    3
    18    23    24   ar
    19     5     6    1
    20     8     9    1
    21     9    10    1
    22    10    11    1
    23    11    12    1
    24    12    13    1
    25    13     8    1
    26     6     1    1
    27    24    18   ar
    28    11    14    1
@<TRIPOS>MOLECULE
*****
 26 28 0 0 0
SMALL
GASTEIGER

@<TRIPOS>ATOM
      1 C          62.5874   90.3192   11.2465 C.3     1  UNL1        0.0290
      2 C          61.5110   90.0256   12.2492 C.3     1  UNL1        0.0870
      3 C          60.4983   89.1337   11.5943 C.2     1  UNL1        0.2258
      4 O          59.2537   88.5942   12.2344 O.2     1  UNL1       -0.2749
      5 N          60.9488   88.8760   10.1869 N.am    1  UNL1       -0.2757
      6 C          62.2399   89.6087    9.9720 C.3     1  UNL1        0.0940
      7 C          63.4745   91.5581   10.0647 C.3     1  UNL1        0.0002
      8 C          63.7986   91.1733   11.4778 C.3     1  UNL1        0.0047
      9 C          63.7021   90.4919   12.8106 C.3     1  UNL1        0.0172
     10 C          64.7041   90.7981   13.8839 C.3     1  UNL1        0.0686
     11 N          65.8028   91.7859   13.6244 N.3     1  UNL1       -0.2975
     12 C          65.8993   92.4673   12.2917 C.3     1  UNL1        0.0686
     13 C          64.8973   92.1610   11.2184 C.3     1  UNL1        0.0172
     14 H          66.6833   91.2910   13.7666 H       1  UNL1        0.1232
     15 C          60.2337   88.0336    9.1726 C.3     1  UNL1        0.1406
     16 C          60.5845   86.5831    9.0207 C.3     1  UNL1        0.2268
     17 O          62.0169   86.1718    8.8502 O.3     1  UNL1       -0.4736
     18 C          62.6438   85.2168    9.8224 C.ar    1  UNL1        0.1395
     19 C          63.5721   84.1466    9.3297 C.ar    1  UNL1        0.0392
     20 C          64.1990   83.1917   10.3018 C.ar    1  UNL1        0.0334
     21 C          63.8976   83.3070   11.7667 C.ar    1  UNL1        0.1499
     22 F          64.5245   82.3520   12.7388 F       1  UNL1       -0.2035
     23 C          62.9693   84.3772   12.2594 C.ar    1  UNL1        0.0988
     24 C          62.3424   85.3322   11.2873 C.ar    1  UNL1        0.0494
     25 C          62.6679   84.4926   13.7243 C.1     1  UNL1        0.1028
     26 N          62.3665   84.6079   15.1892 N.1     1  UNL1       -0.1908
@<TRIPOS>BOND
     1     7     8    1
     2     8     1    1
     3     1     2    1
     4     2     3    1
     5     3     4    2
     6     3     5   am
     7     5    15    1
     8    15    16    1
     9    16    17    1
    10    17    18    1
    11    18    19   ar
    12    19    20   ar
    13    20    21   ar
    14    21    22    1
    15    21    23   ar
    16    23    25    1
    17    25    26    3
    18    23    24   ar
    19     5     6    1
    20     8     9    1
    21     9    10    1
    22    10    11    1
    23    11    12    1
    24    12    13    1
    25    13     8    1
    26     6     1    1
    27    24    18   ar
    28    11    14    1
@<TRIPOS>MOLECULE
*****
 26 28 0 0 0
SMALL
GASTEIGER

@<TRIPOS>ATOM
      1 C          62.8443   84.5286   11.3771 C.3     1  UNL1        0.0290
      2 C          63.3838   84.1326   10.0346 C.3     1  UNL1        0.0870
      3 C          62.7651   85.0294    9.0036 C.2     1  UNL1        0.2258
      4 O          63.0230   84.9839    7.5267 O.2     1  UNL1       -0.2749
      5 N          61.8433   85.9796    9.7089 N.am    1  UNL1       -0.2757
      6 C          61.8923   85.6701   11.1758 C.3     1  UNL1        0.0940
      7 C          62.7193   82.6876   11.9373 C.3     1  UNL1        0.0002
      8 C          63.1953   83.8944   12.6904 C.3     1  UNL1        0.0047
      9 C          63.5494   85.3215   12.9874 C.3     1  UNL1        0.0172
     10 C          64.0892   85.6952   14.3361 C.3     1  UNL1        0.0686
     11 N          64.2748   84.6419   15.3878 N.3     1  UNL1       -0.2975
     12 C          63.9208   83.2149   15.0908 C.3     1  UNL1        0.0686
     13 C          63.3810   82.8411   13.7421 C.3     1  UNL1        0.0172
     14 H          63.7116   84.9242   16.1899 H       1  UNL1        0.1232
     15 C          61.0176   87.0512    9.0610 C.3     1  UNL1        0.1406
     16 C          60.5109   88.2037    9.8766 C.3     1  UNL1        0.2268
     17 O          61.0495   89.5836    9.6405 O.3     1  UNL1       -0.4736
     18 C          62.0796   90.1557   10.5688 C.ar    1  UNL1        0.1395
     19 C          63.1112   91.1115   10.0470 C.ar    1  UNL1        0.0392
     20 C          64.1412   91.6835   10.9753 C.ar    1  UNL1        0.0334
     21 C          64.1397   91.2997   12.4254 C.ar    1  UNL1        0.1499
     22 F          65.1698   91.8718   13.3537 F       1  UNL1       -0.2035
     23 C          63.1081   90.3440   12.9472 C.ar    1  UNL1        0.0988
     24 C          62.0780   89.7720   12.0189 C.ar    1  UNL1        0.0494
     25 C          63.1065   89.9602   14.3973 C.1     1  UNL1        0.1028
     26 N          63.1049   89.5765   15.8474 N.1     1  UNL1       -0.1908
@<TRIPOS>BOND
     1     7     8    1
     2     8     1    1
     3     1     2    1
     4     2     3    1
     5     3     4    2
     6     3     5   am
     7     5    15    1
     8    15    16    1
     9    16    17    1
    10    17    18    1
    11    18    19   ar
    12    19    20   ar
    13    20    21   ar
    14    21    22    1
    15    21    23   ar
    16    23    25    1
    17    25    26    3
    18    23    24   ar
    19     5     6    1
    20     8     9    1
    21     9    10    1
    22    10    11    1
    23    11    12    1
    24    12    13    1
    25    13     8    1
    26     6     1    1
    27    24    18   ar
    28    11    14    1
@<TRIPOS>MOLECULE
*****
 26 28 0 0 0
SMALL
GASTEIGER

@<TRIPOS>ATOM
      1 C          62.2191   89.2504   11.0074 C.3     1  UNL1        0.0290
      2 C          62.8022   90.6257   11.1450 C.3     1  UNL1        0.0870
      3 C          63.6036   90.6646   12.4123 C.2     1  UNL1        0.2258
      4 O          64.3600   91.8471   12.9411 O.2     1  UNL1       -0.2749
      5 N          63.5160   89.3135   13.0580 N.am    1  UNL1       -0.2757
      6 C          62.6603   88.4395   12.1897 C.3     1  UNL1        0.0940
      7 C          60.7650   90.1355   10.1014 C.3     1  UNL1        0.0002
      8 C          61.3478   88.7704    9.8847 C.3     1  UNL1        0.0047
      9 C          62.2333   87.5720   10.0579 C.3     1  UNL1        0.0172
     10 C          62.0451   86.3678    9.1837 C.3     1  UNL1        0.0686
     11 N          60.9714   86.3619    8.1362 N.3     1  UNL1       -0.2975
     12 C          60.0860   87.5602    7.9630 C.3     1  UNL1        0.0686
     13 C          60.2742   88.7645    8.8372 C.3     1  UNL1        0.0172
     14 H          60.3605   85.5722    8.3451 H       1  UNL1        0.1232
     15 C          64.1692   88.9077   14.3457 C.3     1  UNL1        0.1406
     16 C          64.6458   87.4978   14.5333 C.3     1  UNL1        0.2268
     17 O          63.8288   86.5306   15.3376 O.3     1  UNL1       -0.4736
     18 C          63.4362   85.2085   14.7478 C.ar    1  UNL1        0.1395
     19 C          62.4648   84.3234   15.4708 C.ar    1  UNL1        0.0392
     20 C          62.0722   83.0014   14.8810 C.ar    1  UNL1        0.0334
     21 C          62.6512   82.5643   13.5680 C.ar    1  UNL1        0.1499
     22 F          62.2586   81.2422   12.9782 F       1  UNL1       -0.2035
     23 C          63.6227   83.4494   12.8450 C.ar    1  UNL1        0.0988
     24 C          64.0152   84.7714   13.4348 C.ar    1  UNL1        0.0494
     25 C          64.2016   83.0123   11.5320 C.1     1  UNL1        0.1028
     26 N          64.7806   82.5753   10.2191 N.1     1  UNL1       -0.1908
@<TRIPOS>BOND
     1     7     8    1
     2     8     1    1
     3     1     2    1
     4     2     3    1
     5     3     4    2
     6     3     5   am
     7     5    15    1
     8    15    16    1
     9    16    17    1
    10    17    18    1
    11    18    19   ar
    12    19    20   ar
    13    20    21   ar
    14    21    22    1
    15    21    23   ar
    16    23    25    1
    17    25    26    3
    18    23    24   ar
    19     5     6    1
    20     8     9    1
    21     9    10    1
    22    10    11    1
    23    11    12    1
    24    12    13    1
    25    13     8    1
    26     6     1    1
    27    24    18   ar
    28    11    14    1
@<TRIPOS>MOLECULE
*****
 26 28 0 0 0
SMALL
GASTEIGER

@<TRIPOS>ATOM
      1 C          63.2342   83.9598   14.0671 C.3     1  UNL1        0.0290
      2 C          62.7973   84.1050   15.4948 C.3     1  UNL1        0.0870
      3 C          63.2421   85.4525   15.9808 C.2     1  UNL1        0.2258
      4 O          63.0150   86.0138   17.3532 O.2     1  UNL1       -0.2749
      5 N          63.9539   86.1401   14.8536 N.am    1  UNL1       -0.2757
      6 C          63.9490   85.2176   13.6709 C.3     1  UNL1        0.0940
      7 C          62.2317   82.3486   14.4099 C.3     1  UNL1        0.0002
      8 C          62.9977   82.7663   13.1898 C.3     1  UNL1        0.0047
      9 C          63.8460   83.5985   12.2744 C.3     1  UNL1        0.0172
     10 C          64.1917   83.0923   10.9054 C.3     1  UNL1        0.0686
     11 N          63.6892   81.7537   10.4518 N.3     1  UNL1       -0.2975
     12 C          62.8410   80.9215   11.3672 C.3     1  UNL1        0.0686
     13 C          62.4953   81.4278   12.7361 C.3     1  UNL1        0.0172
     14 H          64.5100   81.1939   10.2209 H       1  UNL1        0.1232
     15 C          64.5635   87.5098   14.9009 C.3     1  UNL1        0.1406
     16 C          63.7238   88.6917   15.2857 C.3     1  UNL1        0.2268
     17 O          63.1739   89.5983   14.2248 O.3     1  UNL1       -0.4736
     18 C          64.0837   90.5501   13.5061 C.ar    1  UNL1        0.1395
     19 C          63.7239   91.0407   12.1351 C.ar    1  UNL1        0.0392
     20 C          64.6338   91.9923   11.4164 C.ar    1  UNL1        0.0334
     21 C          65.9033   92.4534   12.0688 C.ar    1  UNL1        0.1499
     22 F          66.8132   93.4051   11.3501 F       1  UNL1       -0.2035
     23 C          66.2631   91.9628   13.4398 C.ar    1  UNL1        0.0988
     24 C          65.3533   91.0111   14.1585 C.ar    1  UNL1        0.0494
     25 C          67.5327   92.4238   14.0922 C.1     1  UNL1        0.1028
     26 N          68.8022   92.8849   14.7446 N.1     1  UNL1       -0.1908
@<TRIPOS>BOND
     1     7     8    1
     2     8     1    1
     3     1     2    1
     4     2     3    1
     5     3     4    2
     6     3     5   am
     7     5    15    1
     8    15    16    1
     9    16    17    1
    10    17    18    1
    11    18    19   ar
    12    19    20   ar
    13    20    21   ar
    14    21    22    1
    15    21    23   ar
    16    23    25    1
    17    25    26    3
    18    23    24   ar
    19     5     6    1
    20     8     9    1
    21     9    10    1
    22    10    11    1
    23    11    12    1
    24    12    13    1
    25    13     8    1
    26     6     1    1
    27    24    18   ar
    28    11    14    1
