@<TRIPOS>MOLECULE
*****
 28 30 0 0 0
SMALL
GASTEIGER

@<TRIPOS>ATOM
      1 C          63.3137   86.4676   13.0119 C.ar    1  UNL1        0.1029
      2 C          64.0895   86.4708   14.2956 C.ar    1  UNL1        0.0258
      3 C          64.5236   87.7702   14.9064 C.ar    1  UNL1        0.0612
      4 C          64.1817   89.0665   14.2335 C.ar    1  UNL1        0.2484
      5 N          63.4059   89.0633   12.9498 N.ar    1  UNL1       -0.1099
      6 N          62.9718   87.7639   12.3390 N.ar    1  UNL1       -0.1451
      7 C          63.8598   84.0417   12.2592 C.2     1  UNL1       -0.0053
      8 C          62.8796   85.1682   12.4010 C.2     1  UNL1        0.0180
      9 C          63.4258   82.7423   11.6484 C.3     1  UNL1        0.0939
     10 C          64.1999   82.1552   10.5056 C.3     1  UNL1        0.0262
     11 C          61.0022   80.8029   14.1212 C.3     1  UNL1        0.0946
     12 C          62.2103   81.5152   13.5892 C.2     1  UNL1        0.2232
     13 O          63.4111   81.7127   14.4662 O.2     1  UNL1       -0.2751
     14 N          62.2176   82.0300   12.1803 N.am    1  UNL1       -0.3022
     15 H          61.4295   81.9003   11.6048 H       1  UNL1        0.1497
     16 O          64.6158   90.3659   14.8444 O.3     1  UNL1       -0.4340
     17 C          65.1293   91.4712   13.9700 C.ar    1  UNL1        0.1579
     18 C          64.6725   91.5738   12.5449 C.ar    1  UNL1        0.0415
     19 C          65.1860   92.6791   11.6705 C.ar    1  UNL1        0.0401
     20 C          66.1563   93.6818   12.2212 C.ar    1  UNL1        0.1396
     21 C          66.6131   93.5792   13.6462 C.ar    1  UNL1        0.0514
     22 C          66.0995   92.4738   14.5207 C.ar    1  UNL1        0.0952
     23 CL         66.5563   92.3712   15.9457 Cl      1  UNL1       -0.0790
     24 O          66.6698   94.7871   11.3467 O.3     1  UNL1       -0.4754
     25 C          67.0668   94.4991    9.9292 C.3     1  UNL1        0.2053
     26 C          67.8438   93.2575    9.6055 C.3     1  UNL1        0.0438
     27 C          68.3316   91.8927    9.9918 C.3     1  UNL1        0.0038
     28 C          68.7017   92.4719    8.6586 C.3     1  UNL1        0.0038
@<TRIPOS>BOND
     1    11    12    1
     2    12    13    2
     3    12    14   am
     4    14     9    1
     5     9    10    1
     6     9     7    1
     7     7     8    2
     8     8     1    1
     9     1     2   ar
    10     2     3   ar
    11     3     4   ar
    12     4    16    1
    13    16    17    1
    14    17    18   ar
    15    18    19   ar
    16    19    20   ar
    17    20    24    1
    18    24    25    1
    19    25    26    1
    20    26    27    1
    21    27    28    1
    22    20    21   ar
    23    21    22   ar
    24    22    23    1
    25     4     5   ar
    26     5     6   ar
    27     6     1   ar
    28    22    17   ar
    29    28    26    1
    30    14    15    1
@<TRIPOS>MOLECULE
*****
 28 30 0 0 0
SMALL
GASTEIGER

@<TRIPOS>ATOM
      1 C          63.5322   90.8514   11.7808 C.ar    1  UNL1        0.1029
      2 C          62.9586   90.7624   10.3977 C.ar    1  UNL1        0.0258
      3 C          62.3697   89.4713    9.9116 C.ar    1  UNL1        0.0612
      4 C          62.3543   88.2692   10.8086 C.ar    1  UNL1        0.2484
      5 N          62.9280   88.3582   12.1917 N.ar    1  UNL1       -0.1099
      6 N          63.5169   89.6492   12.6778 N.ar    1  UNL1       -0.1451
      7 C          65.5855   92.4133   12.0877 C.2     1  UNL1       -0.0053
      8 C          64.1212   92.1424   12.2669 C.2     1  UNL1        0.0180
      9 C          66.1745   93.7043   12.5738 C.3     1  UNL1        0.0939
     10 C          66.3394   94.8567   11.6277 C.3     1  UNL1        0.0262
     11 C          68.1840   93.1871   15.9567 C.3     1  UNL1        0.0946
     12 C          67.7600   93.0483   14.5246 C.2     1  UNL1        0.2232
     13 O          68.4976   92.1147   13.6112 O.2     1  UNL1       -0.2751
     14 N          66.5985   93.8431   14.0059 N.am    1  UNL1       -0.3022
     15 H          66.1143   94.4558   14.6054 H       1  UNL1        0.1497
     16 O          61.7654   86.9782   10.3225 O.3     1  UNL1       -0.4340
     17 C          62.3932   85.6732   10.7134 C.ar    1  UNL1        0.1579
     18 C          62.3553   85.2212   12.1432 C.ar    1  UNL1        0.0415
     19 C          62.9832   83.9163   12.5342 C.ar    1  UNL1        0.0401
     20 C          63.6489   83.0632   11.4954 C.ar    1  UNL1        0.1396
     21 C          63.6868   83.5152   10.0656 C.ar    1  UNL1        0.0514
     22 C          63.0589   84.8202    9.6746 C.ar    1  UNL1        0.0952
     23 CL         63.0968   85.2721    8.2448 Cl      1  UNL1       -0.0790
     24 O          64.2767   81.7582   11.8864 O.3     1  UNL1       -0.4754
     25 C          63.9874   81.1598   13.2310 C.3     1  UNL1        0.2053
     26 C          62.5779   80.8148   13.6108 C.3     1  UNL1        0.0438
     27 C          61.4690   79.8099   13.7131 C.3     1  UNL1        0.0038
     28 C          61.2455   81.2222   14.1664 C.3     1  UNL1        0.0038
@<TRIPOS>BOND
     1    11    12    1
     2    12    13    2
     3    12    14   am
     4    14     9    1
     5     9    10    1
     6     9     7    1
     7     7     8    2
     8     8     1    1
     9     1     2   ar
    10     2     3   ar
    11     3     4   ar
    12     4    16    1
    13    16    17    1
    14    17    18   ar
    15    18    19   ar
    16    19    20   ar
    17    20    24    1
    18    24    25    1
    19    25    26    1
    20    26    27    1
    21    27    28    1
    22    20    21   ar
    23    21    22   ar
    24    22    23    1
    25     4     5   ar
    26     5     6   ar
    27     6     1   ar
    28    22    17   ar
    29    28    26    1
    30    14    15    1
@<TRIPOS>MOLECULE
*****
 28 30 0 0 0
SMALL
GASTEIGER

@<TRIPOS>ATOM
      1 C          64.6131   91.4465   12.7729 C.ar    1  UNL1        0.1029
      2 C          65.5515   91.1832   13.9130 C.ar    1  UNL1        0.0258
      3 C          65.1773   90.1977   14.9801 C.ar    1  UNL1        0.0612
      4 C          63.8647   89.4755   14.9071 C.ar    1  UNL1        0.2484
      5 N          62.9263   89.7388   13.7669 N.ar    1  UNL1       -0.1099
      6 N          63.3005   90.7243   12.6998 N.ar    1  UNL1       -0.1451
      7 C          66.0211   93.4825   11.9842 C.2     1  UNL1       -0.0053
      8 C          64.9873   92.4320   11.7058 C.2     1  UNL1        0.0180
      9 C          66.3953   94.4681   10.9171 C.3     1  UNL1        0.0939
     10 C          66.1160   95.9287   11.1139 C.3     1  UNL1        0.0262
     11 C          68.7319   92.4284    8.4413 C.3     1  UNL1        0.0946
     12 C          68.0784   92.9035    9.7051 C.2     1  UNL1        0.2232
     13 O          68.4546   92.2889   11.0207 O.2     1  UNL1       -0.2751
     14 N          67.0488   93.9930    9.6533 N.am    1  UNL1       -0.3022
     15 H          66.8019   94.3963    8.7898 H       1  UNL1        0.1497
     16 O          63.4904   88.4900   15.9742 O.3     1  UNL1       -0.4340
     17 C          63.6029   87.0180   15.7085 C.ar    1  UNL1        0.1579
     18 C          64.2452   86.5312   14.4433 C.ar    1  UNL1        0.0415
     19 C          64.3577   85.0592   14.1776 C.ar    1  UNL1        0.0401
     20 C          63.8279   84.0740   15.1770 C.ar    1  UNL1        0.1396
     21 C          63.1856   84.5608   16.4421 C.ar    1  UNL1        0.0514
     22 C          63.0731   86.0328   16.7078 C.ar    1  UNL1        0.0952
     23 CL         62.4308   86.5196   17.9729 Cl      1  UNL1       -0.0790
     24 O          63.9404   82.6020   14.9112 O.3     1  UNL1       -0.4754
     25 C          63.0356   81.9496   13.9085 C.3     1  UNL1        0.2053
     26 C          63.3646   82.0160   12.4466 C.3     1  UNL1        0.0438
     27 C          64.0918   82.6658   11.3069 C.3     1  UNL1        0.0038
     28 C          63.2071   81.4813   11.0540 C.3     1  UNL1        0.0038
@<TRIPOS>BOND
     1    11    12    1
     2    12    13    2
     3    12    14   am
     4    14     9    1
     5     9    10    1
     6     9     7    1
     7     7     8    2
     8     8     1    1
     9     1     2   ar
    10     2     3   ar
    11     3     4   ar
    12     4    16    1
    13    16    17    1
    14    17    18   ar
    15    18    19   ar
    16    19    20   ar
    17    20    24    1
    18    24    25    1
    19    25    26    1
    20    26    27    1
    21    27    28    1
    22    20    21   ar
    23    21    22   ar
    24    22    23    1
    25     4     5   ar
    26     5     6   ar
    27     6     1   ar
    28    22    17   ar
    29    28    26    1
    30    14    15    1
@<TRIPOS>MOLECULE
*****
 28 30 0 0 0
SMALL
GASTEIGER

@<TRIPOS>ATOM
      1 C          63.4813   86.3163   13.1325 C.ar    1  UNL1        0.1029
      2 C          62.8895   87.2214   12.0930 C.ar    1  UNL1        0.0258
      3 C          62.9505   88.7095   12.2717 C.ar    1  UNL1        0.0612
      4 C          63.6034   89.2925   13.4898 C.ar    1  UNL1        0.2484
      5 N          64.1952   88.3874   14.5292 N.ar    1  UNL1       -0.1099
      6 N          64.1342   86.8993   14.3506 N.ar    1  UNL1       -0.1451
      7 C          63.2405   84.2441   11.5841 C.2     1  UNL1       -0.0053
      8 C          63.4202   84.8283   12.9539 C.2     1  UNL1        0.0180
      9 C          63.1794   82.7560   11.4055 C.3     1  UNL1        0.0939
     10 C          64.2109   82.0580   10.5693 C.3     1  UNL1        0.0262
     11 C          61.1941   80.6253   14.1014 C.3     1  UNL1        0.0946
     12 C          62.2865   81.4154   13.4439 C.2     1  UNL1        0.2232
     13 O          63.5784   81.6550   14.1675 O.2     1  UNL1       -0.2751
     14 N          62.0870   81.9659   12.0629 N.am    1  UNL1       -0.3022
     15 H          61.2391   81.8086   11.5881 H       1  UNL1        0.1497
     16 O          63.6645   90.7806   13.6684 O.3     1  UNL1       -0.4340
     17 C          64.6555   91.5899   12.8856 C.ar    1  UNL1        0.1579
     18 C          64.3406   92.0050   11.4789 C.ar    1  UNL1        0.0415
     19 C          65.3316   92.8143   10.6961 C.ar    1  UNL1        0.0401
     20 C          66.6376   93.2085   11.3199 C.ar    1  UNL1        0.1396
     21 C          66.9525   92.7935   12.7264 C.ar    1  UNL1        0.0514
     22 C          65.9615   91.9841   13.5093 C.ar    1  UNL1        0.0952
     23 CL         66.2764   91.5691   14.9159 Cl      1  UNL1       -0.0790
     24 O          67.6286   94.0179   10.5370 O.3     1  UNL1       -0.4754
     25 C          67.4196   94.2438    9.0689 C.3     1  UNL1        0.2053
     26 C          67.1117   95.6202    8.5583 C.3     1  UNL1        0.0438
     27 C          66.1578   96.7686    8.4130 C.3     1  UNL1        0.0038
     28 C          67.5325   96.8559    7.8193 C.3     1  UNL1        0.0038
@<TRIPOS>BOND
     1    11    12    1
     2    12    13    2
     3    12    14   am
     4    14     9    1
     5     9    10    1
     6     9     7    1
     7     7     8    2
     8     8     1    1
     9     1     2   ar
    10     2     3   ar
    11     3     4   ar
    12     4    16    1
    13    16    17    1
    14    17    18   ar
    15    18    19   ar
    16    19    20   ar
    17    20    24    1
    18    24    25    1
    19    25    26    1
    20    26    27    1
    21    27    28    1
    22    20    21   ar
    23    21    22   ar
    24    22    23    1
    25     4     5   ar
    26     5     6   ar
    27     6     1   ar
    28    22    17   ar
    29    28    26    1
    30    14    15    1
@<TRIPOS>MOLECULE
*****
 28 30 0 0 0
SMALL
GASTEIGER

@<TRIPOS>ATOM
      1 C          63.8293   86.6984   13.8442 C.ar    1  UNL1        0.1029
      2 C          64.4496   87.6119   14.8594 C.ar    1  UNL1        0.0258
      3 C          64.3742   89.0987   14.6758 C.ar    1  UNL1        0.0612
      4 C          63.6783   89.6721   13.4771 C.ar    1  UNL1        0.2484
      5 N          63.0580   88.7586   12.4619 N.ar    1  UNL1       -0.1099
      6 N          63.1335   87.2718   12.6454 N.ar    1  UNL1       -0.1451
      7 C          62.8751   84.3244   13.3934 C.2     1  UNL1       -0.0053
      8 C          63.9048   85.2116   14.0278 C.2     1  UNL1        0.0180
      9 C          62.9506   82.8376   13.5770 C.3     1  UNL1        0.0939
     10 C          63.4439   82.2660   14.8732 C.3     1  UNL1        0.0262
     11 C          63.0154   80.8043   10.1695 C.3     1  UNL1        0.0946
     12 C          63.4332   81.7195   11.2820 C.2     1  UNL1        0.2232
     13 O          64.7514   82.4318   11.2121 O.2     1  UNL1       -0.2751
     14 N          62.5328   81.9224   12.4645 N.am    1  UNL1       -0.3022
     15 H          61.6676   81.4548   12.5103 H       1  UNL1        0.1497
     16 O          63.6029   91.1589   13.2935 O.3     1  UNL1       -0.4340
     17 C          64.6802   91.8767   12.5359 C.ar    1  UNL1        0.1579
     18 C          65.8401   92.4796   13.2715 C.ar    1  UNL1        0.0415
     19 C          66.9175   93.1974   12.5139 C.ar    1  UNL1        0.0401
     20 C          66.8349   93.3124   11.0206 C.ar    1  UNL1        0.1396
     21 C          65.6751   92.7095   10.2849 C.ar    1  UNL1        0.0514
     22 C          64.5977   91.9917   11.0426 C.ar    1  UNL1        0.0952
     23 CL         63.4378   91.3888   10.3069 Cl      1  UNL1       -0.0790
     24 O          67.9123   94.0302   10.2630 O.3     1  UNL1       -0.4754
     25 C          67.5472   95.0312    9.2072 C.3     1  UNL1        0.2053
     26 C          66.4000   95.9715    9.4299 C.3     1  UNL1        0.0438
     27 C          65.4936   96.7165   10.3645 C.3     1  UNL1        0.0038
     28 C          65.3193   96.8552    8.8812 C.3     1  UNL1        0.0038
@<TRIPOS>BOND
     1    11    12    1
     2    12    13    2
     3    12    14   am
     4    14     9    1
     5     9    10    1
     6     9     7    1
     7     7     8    2
     8     8     1    1
     9     1     2   ar
    10     2     3   ar
    11     3     4   ar
    12     4    16    1
    13    16    17    1
    14    17    18   ar
    15    18    19   ar
    16    19    20   ar
    17    20    24    1
    18    24    25    1
    19    25    26    1
    20    26    27    1
    21    27    28    1
    22    20    21   ar
    23    21    22   ar
    24    22    23    1
    25     4     5   ar
    26     5     6   ar
    27     6     1   ar
    28    22    17   ar
    29    28    26    1
    30    14    15    1
@<TRIPOS>MOLECULE
*****
 28 30 0 0 0
SMALL
GASTEIGER

@<TRIPOS>ATOM
      1 C          62.2048   85.7491   11.3111 C.ar    1  UNL1        0.1029
      2 C          61.4671   86.4136   10.1867 C.ar    1  UNL1        0.0258
      3 C          61.4571   87.9095   10.0768 C.ar    1  UNL1        0.0612
      4 C          62.1849   88.7410   11.0912 C.ar    1  UNL1        0.2484
      5 N          62.9226   88.0765   12.2155 N.ar    1  UNL1       -0.1099
      6 N          62.9326   86.5805   12.3255 N.ar    1  UNL1       -0.1451
      7 C          63.3200   83.5631   12.1641 C.2     1  UNL1       -0.0053
      8 C          62.2147   84.2532   11.4210 C.2     1  UNL1        0.0180
      9 C          63.3299   82.0672   12.2740 C.3     1  UNL1        0.0939
     10 C          64.6183   81.3129   12.1276 C.3     1  UNL1        0.0262
     11 C          60.1930   80.5451   14.1694 C.3     1  UNL1        0.0946
     12 C          61.4713   81.2868   13.9130 C.2     1  UNL1        0.2232
     13 O          62.1692   81.9899   15.0393 O.2     1  UNL1       -0.2751
     14 N          62.0516   81.3255   12.5304 N.am    1  UNL1       -0.3022
     15 H          61.5935   80.8640   11.7912 H       1  UNL1        0.1497
     16 O          62.1749   90.2369   10.9812 O.3     1  UNL1       -0.4340
     17 C          63.3688   91.0295   11.4244 C.ar    1  UNL1        0.1579
     18 C          64.1999   91.7625   10.4134 C.ar    1  UNL1        0.0415
     19 C          65.3937   92.5551   10.8567 C.ar    1  UNL1        0.0401
     20 C          65.7566   92.6146   12.3109 C.ar    1  UNL1        0.1396
     21 C          64.9256   91.8816   13.3219 C.ar    1  UNL1        0.0514
     22 C          63.7317   91.0890   12.8787 C.ar    1  UNL1        0.0952
     23 CL         62.9007   90.3560   13.8897 Cl      1  UNL1       -0.0790
     24 O          66.9505   93.4072   12.7541 O.3     1  UNL1       -0.4754
     25 C          66.9597   94.0569   14.1061 C.3     1  UNL1        0.2053
     26 C          67.8569   93.5287   15.1858 C.3     1  UNL1        0.0438
     27 C          68.9397   93.7515   16.1996 C.3     1  UNL1        0.0038
     28 C          68.3281   92.3909   16.0423 C.3     1  UNL1        0.0038
@<TRIPOS>BOND
     1    11    12    1
     2    12    13    2
     3    12    14   am
     4    14     9    1
     5     9    10    1
     6     9     7    1
     7     7     8    2
     8     8     1    1
     9     1     2   ar
    10     2     3   ar
    11     3     4   ar
    12     4    16    1
    13    16    17    1
    14    17    18   ar
    15    18    19   ar
    16    19    20   ar
    17    20    24    1
    18    24    25    1
    19    25    26    1
    20    26    27    1
    21    27    28    1
    22    20    21   ar
    23    21    22   ar
    24    22    23    1
    25     4     5   ar
    26     5     6   ar
    27     6     1   ar
    28    22    17   ar
    29    28    26    1
    30    14    15    1
@<TRIPOS>MOLECULE
*****
 28 30 0 0 0
SMALL
GASTEIGER

@<TRIPOS>ATOM
      1 C          61.3522   87.1392    9.5198 C.ar    1  UNL1        0.1029
      2 C          60.6734   86.2902    8.4861 C.ar    1  UNL1        0.0258
      3 C          59.6918   86.9080    7.5350 C.ar    1  UNL1        0.0612
      4 C          59.3889   88.3748    7.6175 C.ar    1  UNL1        0.2484
      5 N          60.0677   89.2237    8.6511 N.ar    1  UNL1       -0.1099
      6 N          61.0494   88.6059    9.6023 N.ar    1  UNL1       -0.1451
      7 C          61.9533   85.2990   11.2525 C.2     1  UNL1       -0.0053
      8 C          62.3339   86.5214   10.4709 C.2     1  UNL1        0.0180
      9 C          62.9350   84.6812   12.2036 C.3     1  UNL1        0.0939
     10 C          63.8392   83.5788   11.7372 C.3     1  UNL1        0.0262
     11 C          62.6269   84.7674   16.1593 C.3     1  UNL1        0.0946
     12 C          62.5493   84.2829   14.7418 C.2     1  UNL1        0.2232
     13 O          62.0085   82.9156   14.4451 O.2     1  UNL1       -0.2751
     14 N          63.0126   85.1657   13.6211 N.am    1  UNL1       -0.3022
     15 H          63.3675   86.0631   13.8158 H       1  UNL1        0.1497
     16 O          58.4072   88.9925    6.6664 O.3     1  UNL1       -0.4340
     17 C          58.8304   90.1312    5.7864 C.ar    1  UNL1        0.1579
     18 C          60.2874   90.3798    5.5302 C.ar    1  UNL1        0.0415
     19 C          60.7105   91.5185    4.6503 C.ar    1  UNL1        0.0401
     20 C          59.6768   92.4086    4.0265 C.ar    1  UNL1        0.1396
     21 C          58.2199   92.1601    4.2827 C.ar    1  UNL1        0.0514
     22 C          57.7967   91.0213    5.1627 C.ar    1  UNL1        0.0952
     23 CL         56.3398   90.7728    5.4188 Cl      1  UNL1       -0.0790
     24 O          60.1000   93.5473    3.1466 O.3     1  UNL1       -0.4754
     25 C          61.1818   93.3455    2.1272 C.3     1  UNL1        0.2053
     26 C          60.8402   92.8164    0.7659 C.3     1  UNL1        0.0438
     27 C          59.9048   92.0749   -0.1425 C.3     1  UNL1        0.0038
     28 C          61.1839   92.6413   -0.6836 C.3     1  UNL1        0.0038
@<TRIPOS>BOND
     1    11    12    1
     2    12    13    2
     3    12    14   am
     4    14     9    1
     5     9    10    1
     6     9     7    1
     7     7     8    2
     8     8     1    1
     9     1     2   ar
    10     2     3   ar
    11     3     4   ar
    12     4    16    1
    13    16    17    1
    14    17    18   ar
    15    18    19   ar
    16    19    20   ar
    17    20    24    1
    18    24    25    1
    19    25    26    1
    20    26    27    1
    21    27    28    1
    22    20    21   ar
    23    21    22   ar
    24    22    23    1
    25     4     5   ar
    26     5     6   ar
    27     6     1   ar
    28    22    17   ar
    29    28    26    1
    30    14    15    1
@<TRIPOS>MOLECULE
*****
 28 30 0 0 0
SMALL
GASTEIGER

@<TRIPOS>ATOM
      1 C          63.6275   85.9321   13.1994 C.ar    1  UNL1        0.1029
      2 C          64.2887   86.6673   14.3273 C.ar    1  UNL1        0.0258
      3 C          64.1697   88.1595   14.4219 C.ar    1  UNL1        0.0612
      4 C          63.3893   88.9166   13.3886 C.ar    1  UNL1        0.2484
      5 N          62.7281   88.1815   12.2607 N.ar    1  UNL1       -0.1099
      6 N          62.8472   86.6892   12.1661 N.ar    1  UNL1       -0.1451
      7 C          62.6407   83.6369   12.4866 C.2     1  UNL1       -0.0053
      8 C          63.7466   84.4398   13.1048 C.2     1  UNL1        0.0180
      9 C          62.7598   82.1446   12.3920 C.3     1  UNL1        0.0939
     10 C          62.6723   81.3051   13.6321 C.3     1  UNL1        0.0262
     11 C          63.0787   79.3474    9.5949 C.3     1  UNL1        0.0946
     12 C          62.8722   80.0002   10.9295 C.2     1  UNL1        0.2232
     13 O          62.5715   79.1615   12.1362 O.2     1  UNL1       -0.2751
     14 N          62.9663   81.4918   11.0575 N.am    1  UNL1       -0.3022
     15 H          63.1637   82.0423   10.2655 H       1  UNL1        0.1497
     16 O          63.2703   90.4089   13.4832 O.3     1  UNL1       -0.4340
     17 C          64.2946   91.2862   12.8267 C.ar    1  UNL1        0.1579
     18 C          64.1337   91.6801   11.3882 C.ar    1  UNL1        0.0415
     19 C          65.1580   92.5573   10.7317 C.ar    1  UNL1        0.0401
     20 C          66.3434   93.0407   11.5135 C.ar    1  UNL1        0.1396
     21 C          66.5044   92.6469   12.9519 C.ar    1  UNL1        0.0514
     22 C          65.4800   91.7696   13.6085 C.ar    1  UNL1        0.0952
     23 CL         65.6410   91.3757   15.0469 Cl      1  UNL1       -0.0790
     24 O          67.3678   93.9180   10.8569 O.3     1  UNL1       -0.4754
     25 C          67.0332   95.3417   10.5238 C.3     1  UNL1        0.2053
     26 C          66.9844   95.7853    9.0918 C.3     1  UNL1        0.0438
     27 C          67.2006   96.8444    8.0518 C.3     1  UNL1        0.0038
     28 C          66.6836   95.4945    7.6513 C.3     1  UNL1        0.0038
@<TRIPOS>BOND
     1    11    12    1
     2    12    13    2
     3    12    14   am
     4    14     9    1
     5     9    10    1
     6     9     7    1
     7     7     8    2
     8     8     1    1
     9     1     2   ar
    10     2     3   ar
    11     3     4   ar
    12     4    16    1
    13    16    17    1
    14    17    18   ar
    15    18    19   ar
    16    19    20   ar
    17    20    24    1
    18    24    25    1
    19    25    26    1
    20    26    27    1
    21    27    28    1
    22    20    21   ar
    23    21    22   ar
    24    22    23    1
    25     4     5   ar
    26     5     6   ar
    27     6     1   ar
    28    22    17   ar
    29    28    26    1
    30    14    15    1
@<TRIPOS>MOLECULE
*****
 28 30 0 0 0
SMALL
GASTEIGER

@<TRIPOS>ATOM
      1 C          59.7159   92.1053    4.0473 C.ar    1  UNL1        0.1029
      2 C          60.7488   91.2290    4.6917 C.ar    1  UNL1        0.0258
      3 C          60.3396   90.2253    5.7286 C.ar    1  UNL1        0.0612
      4 C          58.8975   90.0980    6.1213 C.ar    1  UNL1        0.2484
      5 N          57.8647   90.9743    5.4769 N.ar    1  UNL1       -0.1099
      6 N          58.2738   91.9780    4.4400 N.ar    1  UNL1       -0.1451
      7 C          61.2631   92.8060    2.0814 C.2     1  UNL1       -0.0053
      8 C          60.1251   93.1089    3.0104 C.2     1  UNL1        0.0180
      9 C          61.6723   93.8097    1.0444 C.3     1  UNL1        0.0939
     10 C          61.3044   93.5946   -0.3938 C.3     1  UNL1        0.0262
     11 C          64.7117   96.1601    2.0381 C.3     1  UNL1        0.0946
     12 C          63.9346   94.9415    1.6369 C.2     1  UNL1        0.2232
     13 O          64.6428   93.6359    1.4269 O.2     1  UNL1       -0.2751
     14 N          62.4494   95.0283    1.4456 N.am    1  UNL1       -0.3022
     15 H          61.9846   95.8852    1.5835 H       1  UNL1        0.1497
     16 O          58.4884   89.0944    7.1582 O.3     1  UNL1       -0.4340
     17 C          59.5122   88.1788    7.7609 C.ar    1  UNL1        0.1579
     18 C          59.7022   86.7978    7.2069 C.ar    1  UNL1        0.0415
     19 C          60.7261   85.8822    7.8096 C.ar    1  UNL1        0.0401
     20 C          61.5600   86.3475    8.9664 C.ar    1  UNL1        0.1396
     21 C          61.3700   87.7283    9.5205 C.ar    1  UNL1        0.0514
     22 C          60.3461   88.6440    8.9177 C.ar    1  UNL1        0.0952
     23 CL         60.1561   90.0249    9.4718 Cl      1  UNL1       -0.0790
     24 O          62.5839   85.4317    9.5691 O.3     1  UNL1       -0.4754
     25 C          62.4315   84.9659   10.9868 C.3     1  UNL1        0.2053
     26 C          63.0127   83.6495   11.4102 C.3     1  UNL1        0.0438
     27 C          62.8248   82.2384   11.8827 C.3     1  UNL1        0.0038
     28 C          64.2072   82.7806   11.6710 C.3     1  UNL1        0.0038
@<TRIPOS>BOND
     1    11    12    1
     2    12    13    2
     3    12    14   am
     4    14     9    1
     5     9    10    1
     6     9     7    1
     7     7     8    2
     8     8     1    1
     9     1     2   ar
    10     2     3   ar
    11     3     4   ar
    12     4    16    1
    13    16    17    1
    14    17    18   ar
    15    18    19   ar
    16    19    20   ar
    17    20    24    1
    18    24    25    1
    19    25    26    1
    20    26    27    1
    21    27    28    1
    22    20    21   ar
    23    21    22   ar
    24    22    23    1
    25     4     5   ar
    26     5     6   ar
    27     6     1   ar
    28    22    17   ar
    29    28    26    1
    30    14    15    1
