@<TRIPOS>MOLECULE
*****
 29 31 0 0 0
SMALL
GASTEIGER

@<TRIPOS>ATOM
      1 O          59.9383   88.0325   11.6340 O.2     1  UNL1       -0.2732
      2 C          61.2294   88.7691   11.4328 C.2     1  UNL1        0.2430
      3 N          62.4516   88.0293   10.9756 N.am    1  UNL1       -0.2948
      4 H          63.2990   88.5128   10.8436 H       1  UNL1        0.1501
      5 C          61.2984   90.2455   11.6887 C.3     1  UNL1        0.1759
      6 N          62.6157   90.8920   11.9999 N.am    1  UNL1       -0.2931
      7 C          63.2508   90.6912   13.3438 C.2     1  UNL1        0.2462
      8 O          62.5687   89.8438   14.3766 O.2     1  UNL1       -0.2701
      9 H          63.0633   91.4482   11.3220 H       1  UNL1        0.1502
     10 C          64.5681   91.3377   13.6550 C.ar    1  UNL1        0.0535
     11 C          65.3122   92.0776   12.5831 C.ar    1  UNL1        0.0068
     12 C          66.6294   92.7241   12.8944 C.ar    1  UNL1        0.0298
     13 C          67.2025   92.6308   14.2774 C.ar    1  UNL1        0.1401
     14 F          68.5198   93.2774   14.5886 F       1  UNL1       -0.2042
     15 C          66.4584   91.8910   15.3493 C.ar    1  UNL1        0.0298
     16 C          65.1412   91.2445   15.0380 C.ar    1  UNL1        0.0068
     17 C          62.3827   86.5529   10.7197 C.3     1  UNL1        0.1534
     18 C          62.0042   86.0442    9.3603 C.ar    1  UNL1        0.0028
     19 C          63.0203   85.3342    8.5157 C.ar    1  UNL1       -0.0023
     20 C          62.6419   84.8254    7.1562 C.ar    1  UNL1       -0.0003
     21 C          61.2474   85.0268    6.6415 C.ar    1  UNL1       -0.0000
     22 C          60.2314   85.7369    7.4862 C.ar    1  UNL1       -0.0003
     23 C          60.6098   86.2456    8.8456 C.ar    1  UNL1       -0.0023
     24 C          62.6922   85.5852   11.8232 C.ar    1  UNL1        0.1611
     25 N          63.2918   86.0782   13.1068 N.ar    1  UNL1       -0.2271
     26 C          63.6014   85.1105   14.2103 C.ar    1  UNL1        0.1019
     27 C          63.3113   83.6498   14.0302 C.ar    1  UNL1        0.0413
     28 C          62.7118   83.1569   12.7467 C.ar    1  UNL1        0.1019
     29 N          62.4022   84.1246   11.6432 N.ar    1  UNL1       -0.2271
@<TRIPOS>BOND
     1     1     2    2
     2     2     5    1
     3     5     6    1
     4     6     7   am
     5     7     8    2
     6     7    10    1
     7    10    11   ar
     8    11    12   ar
     9    12    13   ar
    10    13    14    1
    11    13    15   ar
    12    15    16   ar
    13     2     3   am
    14     3    17    1
    15    17    18    1
    16    18    19   ar
    17    19    20   ar
    18    20    21   ar
    19    21    22   ar
    20    22    23   ar
    21    17    24    1
    22    24    25   ar
    23    25    26   ar
    24    26    27   ar
    25    27    28   ar
    26    28    29   ar
    27    16    10   ar
    28    23    18   ar
    29    29    24   ar
    30     6     9    1
    31     3     4    1
@<TRIPOS>MOLECULE
*****
 29 31 0 0 0
SMALL
GASTEIGER

@<TRIPOS>ATOM
      1 O          62.3904   89.3322   16.3353 O.2     1  UNL1       -0.2732
      2 C          63.2680   88.1666   15.9873 C.2     1  UNL1        0.2430
      3 N          64.2867   88.2949   14.8937 N.am    1  UNL1       -0.2948
      4 H          64.8627   87.5298   14.6654 H       1  UNL1        0.1501
      5 C          63.1270   86.8727   16.7329 C.3     1  UNL1        0.1759
      6 N          62.8025   85.6106   15.9900 N.am    1  UNL1       -0.2931
      7 C          63.8378   84.9676   15.1156 C.2     1  UNL1        0.2462
      8 O          65.1977   85.5868   14.9839 O.2     1  UNL1       -0.2701
      9 H          61.9099   85.2042   16.0765 H       1  UNL1        0.1502
     10 C          63.5132   83.7055   14.3727 C.ar    1  UNL1        0.0535
     11 C          64.3485   83.2908   13.1979 C.ar    1  UNL1        0.0068
     12 C          64.0239   82.0287   12.4551 C.ar    1  UNL1        0.0298
     13 C          62.8641   81.1813   12.8873 C.ar    1  UNL1        0.1401
     14 F          62.5396   79.9191   12.1444 F       1  UNL1       -0.2042
     15 C          62.0289   81.5959   14.0621 C.ar    1  UNL1        0.0298
     16 C          62.3535   82.8580   14.8049 C.ar    1  UNL1        0.0068
     17 C          64.4277   89.5888   14.1481 C.3     1  UNL1        0.1534
     18 C          63.7598   89.7637   12.8165 C.ar    1  UNL1        0.0028
     19 C          63.0201   88.6179   12.1922 C.ar    1  UNL1       -0.0023
     20 C          62.3521   88.7927   10.8605 C.ar    1  UNL1       -0.0003
     21 C          62.4239   90.1135   10.1532 C.ar    1  UNL1       -0.0000
     22 C          63.1636   91.2595   10.7775 C.ar    1  UNL1       -0.0003
     23 C          63.8316   91.0845   12.1091 C.ar    1  UNL1       -0.0023
     24 C          65.2367   90.7078   14.7341 C.ar    1  UNL1        0.1611
     25 N          64.6372   91.5975   15.7825 N.ar    1  UNL1       -0.2271
     26 C          65.4462   92.7165   16.3685 C.ar    1  UNL1        0.1019
     27 C          66.8547   92.9457   15.9062 C.ar    1  UNL1        0.0413
     28 C          67.4541   92.0559   14.8579 C.ar    1  UNL1        0.1019
     29 N          66.6451   90.9370   14.2719 N.ar    1  UNL1       -0.2271
@<TRIPOS>BOND
     1     1     2    2
     2     2     5    1
     3     5     6    1
     4     6     7   am
     5     7     8    2
     6     7    10    1
     7    10    11   ar
     8    11    12   ar
     9    12    13   ar
    10    13    14    1
    11    13    15   ar
    12    15    16   ar
    13     2     3   am
    14     3    17    1
    15    17    18    1
    16    18    19   ar
    17    19    20   ar
    18    20    21   ar
    19    21    22   ar
    20    22    23   ar
    21    17    24    1
    22    24    25   ar
    23    25    26   ar
    24    26    27   ar
    25    27    28   ar
    26    28    29   ar
    27    16    10   ar
    28    23    18   ar
    29    29    24   ar
    30     6     9    1
    31     3     4    1
@<TRIPOS>MOLECULE
*****
 29 31 0 0 0
SMALL
GASTEIGER

@<TRIPOS>ATOM
      1 O          65.1483   90.0725   13.9171 O.2     1  UNL1       -0.2732
      2 C          64.1334   90.6817   12.9958 C.2     1  UNL1        0.2430
      3 N          64.4803   91.9064   12.2023 N.am    1  UNL1       -0.2948
      4 H          63.8141   92.3062   11.5976 H       1  UNL1        0.1501
      5 C          62.7715   90.0662   12.8681 C.3     1  UNL1        0.1759
      6 N          62.5294   88.9835   11.8585 N.am    1  UNL1       -0.2931
      7 C          61.5066   89.1797   10.7790 C.2     1  UNL1        0.2462
      8 O          60.7258   90.4585   10.7090 O.2     1  UNL1       -0.2701
      9 H          63.0419   88.1441   11.9043 H       1  UNL1        0.1502
     10 C          61.2645   88.0970    9.7694 C.ar    1  UNL1        0.0535
     11 C          60.0108   88.1060    8.9459 C.ar    1  UNL1        0.0068
     12 C          59.7688   87.0233    7.9364 C.ar    1  UNL1        0.0298
     13 C          60.7805   85.9316    7.7503 C.ar    1  UNL1        0.1401
     14 F          60.5384   84.8489    6.7407 F       1  UNL1       -0.2042
     15 C          62.0342   85.9226    8.5738 C.ar    1  UNL1        0.0298
     16 C          62.2762   87.0052    9.5833 C.ar    1  UNL1        0.0068
     17 C          65.8423   92.5219   12.3300 C.3     1  UNL1        0.1534
     18 C          66.5169   93.1070   11.1248 C.ar    1  UNL1        0.0028
     19 C          67.4629   92.2707   10.3151 C.ar    1  UNL1       -0.0023
     20 C          68.1376   92.8558    9.1098 C.ar    1  UNL1       -0.0003
     21 C          67.8663   94.2770    8.7143 C.ar    1  UNL1       -0.0000
     22 C          66.9202   95.1132    9.5241 C.ar    1  UNL1       -0.0003
     23 C          66.2455   94.5282   10.7293 C.ar    1  UNL1       -0.0023
     24 C          66.5295   92.5524   13.6630 C.ar    1  UNL1        0.1611
     25 N          68.0120   92.3401   13.7475 N.ar    1  UNL1       -0.2271
     26 C          68.6993   92.3706   15.0804 C.ar    1  UNL1        0.1019
     27 C          67.9040   92.6134   16.3289 C.ar    1  UNL1        0.0413
     28 C          66.4215   92.8258   16.2443 C.ar    1  UNL1        0.1019
     29 N          65.7343   92.7953   14.9114 N.ar    1  UNL1       -0.2271
@<TRIPOS>BOND
     1     1     2    2
     2     2     5    1
     3     5     6    1
     4     6     7   am
     5     7     8    2
     6     7    10    1
     7    10    11   ar
     8    11    12   ar
     9    12    13   ar
    10    13    14    1
    11    13    15   ar
    12    15    16   ar
    13     2     3   am
    14     3    17    1
    15    17    18    1
    16    18    19   ar
    17    19    20   ar
    18    20    21   ar
    19    21    22   ar
    20    22    23   ar
    21    17    24    1
    22    24    25   ar
    23    25    26   ar
    24    26    27   ar
    25    27    28   ar
    26    28    29   ar
    27    16    10   ar
    28    23    18   ar
    29    29    24   ar
    30     6     9    1
    31     3     4    1
@<TRIPOS>MOLECULE
*****
 29 31 0 0 0
SMALL
GASTEIGER

@<TRIPOS>ATOM
      1 O          62.3173   89.3660   16.1198 O.2     1  UNL1       -0.2732
      2 C          63.3230   88.2709   15.9216 C.2     1  UNL1        0.2430
      3 N          64.4385   88.4467   14.9343 N.am    1  UNL1       -0.2948
      4 H          65.0986   87.7280   14.8043 H       1  UNL1        0.1501
      5 C          63.2133   87.0001   16.7108 C.3     1  UNL1        0.1759
      6 N          62.8606   85.7162   16.0198 N.am    1  UNL1       -0.2931
      7 C          63.8618   85.0455   15.1267 C.2     1  UNL1        0.2462
      8 O          65.2158   85.6585   14.9246 O.2     1  UNL1       -0.2701
      9 H          61.9719   85.3138   16.1524 H       1  UNL1        0.1502
     10 C          63.5091   83.7616   14.4357 C.ar    1  UNL1        0.0535
     11 C          64.3571   83.2614   13.3042 C.ar    1  UNL1        0.0068
     12 C          64.0044   81.9776   12.6132 C.ar    1  UNL1        0.0298
     13 C          62.8036   81.1941   13.0539 C.ar    1  UNL1        0.1401
     14 F          62.4508   79.9102   12.3629 F       1  UNL1       -0.2042
     15 C          61.9555   81.6944   14.1854 C.ar    1  UNL1        0.0298
     16 C          62.3083   82.9781   14.8764 C.ar    1  UNL1        0.0068
     17 C          64.5483   89.7177   14.1451 C.3     1  UNL1        0.1534
     18 C          65.3927   90.8472   14.6560 C.ar    1  UNL1        0.0028
     19 C          64.9347   91.6517   15.8362 C.ar    1  UNL1       -0.0023
     20 C          65.7792   92.7813   16.3471 C.ar    1  UNL1       -0.0003
     21 C          67.0817   93.1063   15.6778 C.ar    1  UNL1       -0.0000
     22 C          67.5397   92.3016   14.4976 C.ar    1  UNL1       -0.0003
     23 C          66.6952   91.1721   13.9867 C.ar    1  UNL1       -0.0023
     24 C          63.8135   89.8590   12.8451 C.ar    1  UNL1        0.1611
     25 N          63.8881   91.1456   12.0774 N.ar    1  UNL1       -0.2271
     26 C          63.1533   91.2869   10.7774 C.ar    1  UNL1        0.1019
     27 C          62.3440   90.1417   10.2449 C.ar    1  UNL1        0.0413
     28 C          62.2695   88.8552   11.0125 C.ar    1  UNL1        0.1019
     29 N          63.0042   88.7138   12.3126 N.ar    1  UNL1       -0.2271
@<TRIPOS>BOND
     1     1     2    2
     2     2     5    1
     3     5     6    1
     4     6     7   am
     5     7     8    2
     6     7    10    1
     7    10    11   ar
     8    11    12   ar
     9    12    13   ar
    10    13    14    1
    11    13    15   ar
    12    15    16   ar
    13     2     3   am
    14     3    17    1
    15    17    18    1
    16    18    19   ar
    17    19    20   ar
    18    20    21   ar
    19    21    22   ar
    20    22    23   ar
    21    17    24    1
    22    24    25   ar
    23    25    26   ar
    24    26    27   ar
    25    27    28   ar
    26    28    29   ar
    27    16    10   ar
    28    23    18   ar
    29    29    24   ar
    30     6     9    1
    31     3     4    1
@<TRIPOS>MOLECULE
*****
 29 31 0 0 0
SMALL
GASTEIGER

@<TRIPOS>ATOM
      1 O          63.1074   88.8677   15.9019 O.2     1  UNL1       -0.2732
      2 C          63.7615   87.8040   15.0708 C.2     1  UNL1        0.2430
      3 N          64.0505   88.0570   13.6209 N.am    1  UNL1       -0.2948
      4 H          64.4798   87.3589   13.0754 H       1  UNL1        0.1501
      5 C          64.1265   86.4873   15.6897 C.3     1  UNL1        0.1759
      6 N          64.0890   85.2349   14.8650 N.am    1  UNL1       -0.2931
      7 C          62.8221   84.4375   14.7695 C.2     1  UNL1        0.2462
      8 O          61.5927   84.8925   15.4986 O.2     1  UNL1       -0.2701
      9 H          64.8958   84.9362   14.3865 H       1  UNL1        0.1502
     10 C          62.7845   83.1850   13.9448 C.ar    1  UNL1        0.0535
     11 C          63.5226   83.1235   12.6404 C.ar    1  UNL1        0.0068
     12 C          63.4850   81.8711   11.8159 C.ar    1  UNL1        0.0298
     13 C          62.7094   80.6802   12.2957 C.ar    1  UNL1        0.1401
     14 F          62.6718   79.4277   11.4710 F       1  UNL1       -0.2042
     15 C          61.9713   80.7417   13.6000 C.ar    1  UNL1        0.0298
     16 C          62.0089   81.9942   14.4246 C.ar    1  UNL1        0.0068
     17 C          63.6855   89.3738   13.0019 C.3     1  UNL1        0.1534
     18 C          64.5582   90.5736   13.2222 C.ar    1  UNL1        0.0028
     19 C          65.3878   90.6792   14.4674 C.ar    1  UNL1       -0.0023
     20 C          66.2606   91.8791   14.6877 C.ar    1  UNL1       -0.0003
     21 C          66.3037   92.9735   13.6628 C.ar    1  UNL1       -0.0000
     22 C          65.4740   92.8679   12.4175 C.ar    1  UNL1       -0.0003
     23 C          64.6013   91.6680   12.1973 C.ar    1  UNL1       -0.0023
     24 C          62.4477   89.4905   12.1627 C.ar    1  UNL1        0.1611
     25 N          61.1116   89.6763   12.8188 N.ar    1  UNL1       -0.2271
     26 C          59.8738   89.7930   11.9796 C.ar    1  UNL1        0.1019
     27 C          59.9721   89.7240   10.4843 C.ar    1  UNL1        0.0413
     28 C          61.3082   89.5383    9.8284 C.ar    1  UNL1        0.1019
     29 N          62.5460   89.4215   10.6676 N.ar    1  UNL1       -0.2271
@<TRIPOS>BOND
     1     1     2    2
     2     2     5    1
     3     5     6    1
     4     6     7   am
     5     7     8    2
     6     7    10    1
     7    10    11   ar
     8    11    12   ar
     9    12    13   ar
    10    13    14    1
    11    13    15   ar
    12    15    16   ar
    13     2     3   am
    14     3    17    1
    15    17    18    1
    16    18    19   ar
    17    19    20   ar
    18    20    21   ar
    19    21    22   ar
    20    22    23   ar
    21    17    24    1
    22    24    25   ar
    23    25    26   ar
    24    26    27   ar
    25    27    28   ar
    26    28    29   ar
    27    16    10   ar
    28    23    18   ar
    29    29    24   ar
    30     6     9    1
    31     3     4    1
@<TRIPOS>MOLECULE
*****
 29 31 0 0 0
SMALL
GASTEIGER

@<TRIPOS>ATOM
      1 O          61.4674   89.8875   13.6778 O.2     1  UNL1       -0.2732
      2 C          62.2110   90.2513   12.4269 C.2     1  UNL1        0.2430
      3 N          63.6908   90.4912   12.4770 N.am    1  UNL1       -0.2948
      4 H          64.1788   90.7299   11.6559 H       1  UNL1        0.1501
      5 C          61.4747   90.3752   11.1260 C.3     1  UNL1        0.1759
      6 N          61.6783   89.3516   10.0485 N.am    1  UNL1       -0.2931
      7 C          61.1332   87.9646   10.2190 C.2     1  UNL1        0.2462
      8 O          60.3845   87.6011   11.4669 O.2     1  UNL1       -0.2701
      9 H          62.1697   89.5901    9.2294 H       1  UNL1        0.1502
     10 C          61.3368   86.9410    9.1415 C.ar    1  UNL1        0.0535
     11 C          62.6408   86.2065    9.0415 C.ar    1  UNL1        0.0068
     12 C          62.8444   85.1830    7.9641 C.ar    1  UNL1        0.0298
     13 C          61.7440   84.8940    6.9866 C.ar    1  UNL1        0.1401
     14 F          61.9476   83.8704    5.9091 F       1  UNL1       -0.2042
     15 C          60.4400   85.6285    7.0865 C.ar    1  UNL1        0.0298
     16 C          60.2364   86.6520    8.1640 C.ar    1  UNL1        0.0068
     17 C          64.4271   90.3673   13.7780 C.3     1  UNL1        0.1534
     18 C          64.0873   89.2586   14.7295 C.ar    1  UNL1        0.0028
     19 C          63.4141   89.5694   16.0333 C.ar    1  UNL1       -0.0023
     20 C          63.0742   88.4608   16.9849 C.ar    1  UNL1       -0.0003
     21 C          63.4076   87.0414   16.6326 C.ar    1  UNL1       -0.0000
     22 C          64.0809   86.7306   15.3286 C.ar    1  UNL1       -0.0003
     23 C          64.4207   87.8393   14.3771 C.ar    1  UNL1       -0.0023
     24 C          65.5033   91.3521   14.1274 C.ar    1  UNL1        0.1611
     25 N          65.4629   92.7400   13.5597 N.ar    1  UNL1       -0.2271
     26 C          66.5390   93.7248   13.9091 C.ar    1  UNL1        0.1019
     27 C          67.6556   93.3216   14.8262 C.ar    1  UNL1        0.0413
     28 C          67.6960   91.9338   15.3937 C.ar    1  UNL1        0.1019
     29 N          66.6198   90.9490   15.0443 N.ar    1  UNL1       -0.2271
@<TRIPOS>BOND
     1     1     2    2
     2     2     5    1
     3     5     6    1
     4     6     7   am
     5     7     8    2
     6     7    10    1
     7    10    11   ar
     8    11    12   ar
     9    12    13   ar
    10    13    14    1
    11    13    15   ar
    12    15    16   ar
    13     2     3   am
    14     3    17    1
    15    17    18    1
    16    18    19   ar
    17    19    20   ar
    18    20    21   ar
    19    21    22   ar
    20    22    23   ar
    21    17    24    1
    22    24    25   ar
    23    25    26   ar
    24    26    27   ar
    25    27    28   ar
    26    28    29   ar
    27    16    10   ar
    28    23    18   ar
    29    29    24   ar
    30     6     9    1
    31     3     4    1
@<TRIPOS>MOLECULE
*****
 29 31 0 0 0
SMALL
GASTEIGER

@<TRIPOS>ATOM
      1 O          63.6631   91.7133   15.5325 O.2     1  UNL1       -0.2732
      2 C          65.0258   91.4239   14.9762 C.2     1  UNL1        0.2430
      3 N          65.2789   90.1411   14.2412 N.am    1  UNL1       -0.2948
      4 H          66.1732   89.9512   13.8761 H       1  UNL1        0.1501
      5 C          66.1353   92.4174   15.1549 C.3     1  UNL1        0.1759
      6 N          66.6633   93.1730   13.9715 N.am    1  UNL1       -0.2931
      7 C          65.8797   93.2071   12.6930 C.2     1  UNL1        0.2462
      8 O          64.5681   92.4856   12.5977 O.2     1  UNL1       -0.2701
      9 H          67.5242   93.6465   14.0341 H       1  UNL1        0.1502
     10 C          66.4077   93.9627   11.5096 C.ar    1  UNL1        0.0535
     11 C          67.0889   93.2277   10.3935 C.ar    1  UNL1        0.0068
     12 C          67.6169   93.9833    9.2102 C.ar    1  UNL1        0.0298
     13 C          67.4637   95.4739    9.1430 C.ar    1  UNL1        0.1401
     14 F          67.9917   96.2295    7.9596 F       1  UNL1       -0.2042
     15 C          66.7826   96.2090   10.2591 C.ar    1  UNL1        0.0298
     16 C          66.2546   95.4533   11.4424 C.ar    1  UNL1        0.0068
     17 C          64.1693   89.1476   14.0625 C.3     1  UNL1        0.1534
     18 C          63.8666   88.1580   15.1483 C.ar    1  UNL1        0.0028
     19 C          64.2798   86.7245   14.9930 C.ar    1  UNL1       -0.0023
     20 C          63.9770   85.7348   16.0789 C.ar    1  UNL1       -0.0003
     21 C          63.2610   86.1788   17.3199 C.ar    1  UNL1       -0.0000
     22 C          62.8478   87.6124   17.4751 C.ar    1  UNL1       -0.0003
     23 C          63.1506   88.6020   16.3893 C.ar    1  UNL1       -0.0023
     24 C          63.3626   89.1437   12.7979 C.ar    1  UNL1        0.1611
     25 N          62.9678   87.8427   12.1641 N.ar    1  UNL1       -0.2271
     26 C          62.1611   87.8388   10.8995 C.ar    1  UNL1        0.1019
     27 C          61.7492   89.1359   10.2687 C.ar    1  UNL1        0.0413
     28 C          62.1440   90.4369   10.9025 C.ar    1  UNL1        0.1019
     29 N          62.9507   90.4407   12.1671 N.ar    1  UNL1       -0.2271
@<TRIPOS>BOND
     1     1     2    2
     2     2     5    1
     3     5     6    1
     4     6     7   am
     5     7     8    2
     6     7    10    1
     7    10    11   ar
     8    11    12   ar
     9    12    13   ar
    10    13    14    1
    11    13    15   ar
    12    15    16   ar
    13     2     3   am
    14     3    17    1
    15    17    18    1
    16    18    19   ar
    17    19    20   ar
    18    20    21   ar
    19    21    22   ar
    20    22    23   ar
    21    17    24    1
    22    24    25   ar
    23    25    26   ar
    24    26    27   ar
    25    27    28   ar
    26    28    29   ar
    27    16    10   ar
    28    23    18   ar
    29    29    24   ar
    30     6     9    1
    31     3     4    1
@<TRIPOS>MOLECULE
*****
 29 31 0 0 0
SMALL
GASTEIGER

@<TRIPOS>ATOM
      1 O          64.2630   90.2300   12.0685 O.2     1  UNL1       -0.2732
      2 C          62.8055   90.1983   12.4214 C.2     1  UNL1        0.2430
      3 N          62.3810   89.9035   13.8296 N.am    1  UNL1       -0.2948
      4 H          61.4244   89.8827   14.0612 H       1  UNL1        0.1501
      5 C          61.7724   90.4616   11.3663 C.3     1  UNL1        0.1759
      6 N          61.5880   89.4901   10.2383 N.am    1  UNL1       -0.2931
      7 C          61.7965   88.0229   10.4703 C.2     1  UNL1        0.2462
      8 O          62.1894   87.5271   11.8304 O.2     1  UNL1       -0.2701
      9 H          61.3301   89.8155    9.3456 H       1  UNL1        0.1502
     10 C          61.6121   87.0515    9.3423 C.ar    1  UNL1        0.0535
     11 C          60.2854   86.9490    8.6501 C.ar    1  UNL1        0.0068
     12 C          60.1011   85.9776    7.5221 C.ar    1  UNL1        0.0298
     13 C          61.2435   85.1087    7.0864 C.ar    1  UNL1        0.1401
     14 F          61.0591   84.1372    5.9584 F       1  UNL1       -0.2042
     15 C          62.5702   85.2111    7.7787 C.ar    1  UNL1        0.0298
     16 C          62.7545   86.1825    8.9066 C.ar    1  UNL1        0.0068
     17 C          63.4141   89.6403   14.8848 C.3     1  UNL1        0.1534
     18 C          63.5022   88.2878   15.5274 C.ar    1  UNL1        0.0028
     19 C          64.2196   87.1709   14.8289 C.ar    1  UNL1       -0.0023
     20 C          64.3077   85.8183   15.4715 C.ar    1  UNL1       -0.0003
     21 C          63.6783   85.5826   16.8125 C.ar    1  UNL1       -0.0000
     22 C          62.9608   86.6996   17.5109 C.ar    1  UNL1       -0.0003
     23 C          62.8727   88.0521   16.8683 C.ar    1  UNL1       -0.0023
     24 C          64.3592   90.7296   15.2974 C.ar    1  UNL1        0.1611
     25 N          63.9862   91.6646   16.4095 N.ar    1  UNL1       -0.2271
     26 C          64.9312   92.7540   16.8222 C.ar    1  UNL1        0.1019
     27 C          66.2492   92.9083   16.1227 C.ar    1  UNL1        0.0413
     28 C          66.6221   91.9733   15.0107 C.ar    1  UNL1        0.1019
     29 N          65.6771   90.8839   14.5980 N.ar    1  UNL1       -0.2271
@<TRIPOS>BOND
     1     1     2    2
     2     2     5    1
     3     5     6    1
     4     6     7   am
     5     7     8    2
     6     7    10    1
     7    10    11   ar
     8    11    12   ar
     9    12    13   ar
    10    13    14    1
    11    13    15   ar
    12    15    16   ar
    13     2     3   am
    14     3    17    1
    15    17    18    1
    16    18    19   ar
    17    19    20   ar
    18    20    21   ar
    19    21    22   ar
    20    22    23   ar
    21    17    24    1
    22    24    25   ar
    23    25    26   ar
    24    26    27   ar
    25    27    28   ar
    26    28    29   ar
    27    16    10   ar
    28    23    18   ar
    29    29    24   ar
    30     6     9    1
    31     3     4    1
@<TRIPOS>MOLECULE
*****
 29 31 0 0 0
SMALL
GASTEIGER

@<TRIPOS>ATOM
      1 O          63.8231   88.6285   12.2177 O.2     1  UNL1       -0.2732
      2 C          62.5935   89.4350   12.5136 C.2     1  UNL1        0.2430
      3 N          62.3724   89.9876   13.8904 N.am    1  UNL1       -0.2948
      4 H          61.5653   90.5169   14.0846 H       1  UNL1        0.1501
      5 C          61.5851   89.6891   11.4326 C.3     1  UNL1        0.1759
      6 N          61.5834   88.8423   10.1944 N.am    1  UNL1       -0.2931
      7 C          61.3975   87.3578   10.3013 C.2     1  UNL1        0.2462
      8 O          61.2132   86.7199   11.6463 O.2     1  UNL1       -0.2701
      9 H          61.7044   89.2610    9.3116 H       1  UNL1        0.1502
     10 C          61.3958   86.5110    9.0631 C.ar    1  UNL1        0.0535
     11 C          62.6461   85.7985    8.6400 C.ar    1  UNL1        0.0068
     12 C          62.6444   84.9518    7.4019 C.ar    1  UNL1        0.0298
     13 C          61.3923   84.8176    6.5868 C.ar    1  UNL1        0.1401
     14 F          61.3906   83.9709    5.3486 F       1  UNL1       -0.2042
     15 C          60.1420   85.5301    7.0098 C.ar    1  UNL1        0.0298
     16 C          60.1438   86.3768    8.2480 C.ar    1  UNL1        0.0068
     17 C          63.3808   89.7335   14.9715 C.3     1  UNL1        0.1534
     18 C          64.4348   90.7582   15.2697 C.ar    1  UNL1        0.0028
     19 C          64.2847   91.6656   16.4546 C.ar    1  UNL1       -0.0023
     20 C          65.3387   92.6903   16.7530 C.ar    1  UNL1       -0.0003
     21 C          66.5429   92.8077   15.8663 C.ar    1  UNL1       -0.0000
     22 C          66.6930   91.9003   14.6813 C.ar    1  UNL1       -0.0003
     23 C          65.6390   90.8756   14.3830 C.ar    1  UNL1       -0.0023
     24 C          63.3352   88.4548   15.7542 C.ar    1  UNL1        0.1611
     25 N          62.7106   88.4320   17.1179 N.ar    1  UNL1       -0.2271
     26 C          62.6650   87.1533   17.9006 C.ar    1  UNL1        0.1019
     27 C          63.2439   85.8972   17.3197 C.ar    1  UNL1        0.0413
     28 C          63.8684   85.9200   15.9561 C.ar    1  UNL1        0.1019
     29 N          63.9140   87.1988   15.1734 N.ar    1  UNL1       -0.2271
@<TRIPOS>BOND
     1     1     2    2
     2     2     5    1
     3     5     6    1
     4     6     7   am
     5     7     8    2
     6     7    10    1
     7    10    11   ar
     8    11    12   ar
     9    12    13   ar
    10    13    14    1
    11    13    15   ar
    12    15    16   ar
    13     2     3   am
    14     3    17    1
    15    17    18    1
    16    18    19   ar
    17    19    20   ar
    18    20    21   ar
    19    21    22   ar
    20    22    23   ar
    21    17    24    1
    22    24    25   ar
    23    25    26   ar
    24    26    27   ar
    25    27    28   ar
    26    28    29   ar
    27    16    10   ar
    28    23    18   ar
    29    29    24   ar
    30     6     9    1
    31     3     4    1
