@<TRIPOS>MOLECULE
*****
 30 33 0 0 0
SMALL
GASTEIGER

@<TRIPOS>ATOM
      1 C          63.6237   86.2830   15.7384 C.ar    1  UNL1        0.2172
      2 N          64.3091   87.0024   14.6146 N.ar    1  UNL1       -0.2126
      3 C          64.3859   88.5003   14.6195 C.ar    1  UNL1        0.0994
      4 C          63.7774   89.2790   15.7479 C.ar    1  UNL1        0.0207
      5 C          63.0921   88.5596   16.8717 C.ar    1  UNL1        0.0994
      6 N          63.0152   87.0616   16.8668 N.ar    1  UNL1       -0.2126
      7 N          63.5468   84.7850   15.7336 N.pl3   1  UNL1       -0.2989
      8 H          64.2726   84.2536   16.1336 H       1  UNL1        0.1500
      9 C          62.3640   84.0966   15.1195 C.3     1  UNL1        0.1213
     10 C          63.9133   82.9254   10.3000 C.3     1  UNL1        0.1337
     11 N          63.3415   82.5005   11.6200 N.ar    1  UNL1       -0.2904
     12 C          62.9724   81.0649   11.8502 C.ar    1  UNL1        0.1083
     13 C          62.4005   80.6399   13.1702 C.ar    1  UNL1        0.1572
     14 F          62.0314   79.2043   13.4003 F       1  UNL1       -0.2026
     15 C          62.1977   81.6505   14.2599 C.ar    1  UNL1        0.0333
     16 C          62.5668   83.0861   14.0297 C.ar    1  UNL1        0.0559
     17 C          63.1387   83.5110   12.7097 C.ar    1  UNL1        0.2586
     18 O          63.5078   84.9466   12.4795 O.2     1  UNL1       -0.2673
     19 C          63.8543   90.7771   15.7527 C.3     1  UNL1        0.0575
     20 C          64.9191   91.4759   14.9603 C.ar    1  UNL1        0.0044
     21 C          66.1851   92.0632   15.5103 C.ar    1  UNL1        0.0966
     22 N          66.9532   92.6604   14.3687 N.ar    1  UNL1       -0.2273
     23 C          66.1620   92.4422   13.1132 C.ar    1  UNL1        0.1403
     24 N          66.4239   92.8156   11.6842 N.ar    1  UNL1       -0.3367
     25 C          65.4286   92.4569   10.6209 C.ar    1  UNL1        0.0850
     26 C          64.1715   91.7249   10.9865 C.ar    1  UNL1        0.0747
     27 CL         63.1762   91.3662    9.9231 Cl      1  UNL1       -0.0807
     28 C          63.9096   91.3515   12.4154 C.ar    1  UNL1        0.0156
     29 C          64.9049   91.7102   13.4788 C.ar    1  UNL1        0.0327
     30 H          67.2490   93.2960   11.4442 H       1  UNL1        0.1674
@<TRIPOS>BOND
     1    10    11    1
     2    11    12   ar
     3    12    13   ar
     4    13    14    1
     5    13    15   ar
     6    15    16   ar
     7    16     9    1
     8     9     7    1
     9     7     1    1
    10     1     2   ar
    11     2     3   ar
    12     3     4   ar
    13     4    19    1
    14    19    20    1
    15    20    21   ar
    16    21    22   ar
    17    22    23   ar
    18    23    24   ar
    19    24    25   ar
    20    25    26   ar
    21    26    27    1
    22    26    28   ar
    23    28    29   ar
    24     4     5   ar
    25     5     6   ar
    26    16    17   ar
    27    17    18    2
    28    17    11   ar
    29     6     1   ar
    30    29    20   ar
    31    29    23    1
    32     7     8    1
    33    24    30    1
@<TRIPOS>MOLECULE
*****
 30 33 0 0 0
SMALL
GASTEIGER

@<TRIPOS>ATOM
      1 C          61.8387   89.2862   11.4843 C.ar    1  UNL1        0.2172
      2 N          62.6664   89.7457   12.6479 N.ar    1  UNL1       -0.2126
      3 C          63.6467   90.8676   12.4743 C.ar    1  UNL1        0.0994
      4 C          63.7994   91.5301   11.1372 C.ar    1  UNL1        0.0207
      5 C          62.9718   91.0706    9.9737 C.ar    1  UNL1        0.0994
      6 N          61.9914   89.9487   10.1472 N.ar    1  UNL1       -0.2126
      7 N          60.8583   88.1643   11.6578 N.pl3   1  UNL1       -0.2989
      8 H          60.4181   88.0253   12.5274 H       1  UNL1        0.1500
      9 C          60.5487   87.2540   10.5065 C.3     1  UNL1        0.1213
     10 C          63.9077   83.4898   11.7505 C.3     1  UNL1        0.1337
     11 N          63.2187   84.3251   10.7125 N.ar    1  UNL1       -0.2904
     12 C          63.5202   84.1137    9.2584 C.ar    1  UNL1        0.1083
     13 C          62.8313   84.9490    8.2204 C.ar    1  UNL1        0.1572
     14 F          63.1329   84.7375    6.7663 F       1  UNL1       -0.2026
     15 C          61.8407   85.9958    8.6364 C.ar    1  UNL1        0.0333
     16 C          61.5392   86.2072   10.0905 C.ar    1  UNL1        0.0559
     17 C          62.2282   85.3719   11.1286 C.ar    1  UNL1        0.2586
     18 O          61.9266   85.5834   12.5827 O.2     1  UNL1       -0.2673
     19 C          64.7798   92.6521   10.9637 C.3     1  UNL1        0.0575
     20 C          66.2293   92.4378   11.2847 C.ar    1  UNL1        0.0044
     21 C          67.3283   92.2095   10.2897 C.ar    1  UNL1        0.0966
     22 N          68.6125   92.0449   11.0471 N.ar    1  UNL1       -0.2273
     23 C          68.3072   92.1714   12.5103 C.ar    1  UNL1        0.1403
     24 N          69.1801   92.0969   13.7278 N.ar    1  UNL1       -0.3367
     25 C          68.5801   92.2653   15.0922 C.ar    1  UNL1        0.0850
     26 C          67.1072   92.5081   15.2390 C.ar    1  UNL1        0.0747
     27 CL         66.5072   92.6765   16.6035 Cl      1  UNL1       -0.0807
     28 C          66.2343   92.5827   14.0215 C.ar    1  UNL1        0.0156
     29 C          66.8343   92.4143   12.6571 C.ar    1  UNL1        0.0327
     30 H          70.1468   91.9375   13.6314 H       1  UNL1        0.1674
@<TRIPOS>BOND
     1    10    11    1
     2    11    12   ar
     3    12    13   ar
     4    13    14    1
     5    13    15   ar
     6    15    16   ar
     7    16     9    1
     8     9     7    1
     9     7     1    1
    10     1     2   ar
    11     2     3   ar
    12     3     4   ar
    13     4    19    1
    14    19    20    1
    15    20    21   ar
    16    21    22   ar
    17    22    23   ar
    18    23    24   ar
    19    24    25   ar
    20    25    26   ar
    21    26    27    1
    22    26    28   ar
    23    28    29   ar
    24     4     5   ar
    25     5     6   ar
    26    16    17   ar
    27    17    18    2
    28    17    11   ar
    29     6     1   ar
    30    29    20   ar
    31    29    23    1
    32     7     8    1
    33    24    30    1
@<TRIPOS>MOLECULE
*****
 30 33 0 0 0
SMALL
GASTEIGER

@<TRIPOS>ATOM
      1 C          63.9510   91.0647   12.0969 C.ar    1  UNL1        0.2172
      2 N          63.9321   89.8209   12.9352 N.ar    1  UNL1       -0.2126
      3 C          63.1288   88.6327   12.4959 C.ar    1  UNL1        0.0994
      4 C          62.3445   88.6883   11.2185 C.ar    1  UNL1        0.0207
      5 C          62.3635   89.9320   10.3803 C.ar    1  UNL1        0.0994
      6 N          63.1667   91.1202   10.8195 N.ar    1  UNL1       -0.2126
      7 N          64.7542   92.2529   12.5361 N.pl3   1  UNL1       -0.2989
      8 H          64.3028   93.0330   12.9322 H       1  UNL1        0.1500
      9 C          66.2452   92.2526   12.3719 C.3     1  UNL1        0.1213
     10 C          67.1136   96.5891    9.6442 C.3     1  UNL1        0.1337
     11 N          67.3047   95.1135    9.8337 N.ar    1  UNL1       -0.2904
     12 C          68.1213   94.3304    8.8488 C.ar    1  UNL1        0.1083
     13 C          68.3125   92.8548    9.0382 C.ar    1  UNL1        0.1572
     14 F          69.1291   92.0718    8.0533 F       1  UNL1       -0.2026
     15 C          67.6871   92.1622   10.2126 C.ar    1  UNL1        0.0333
     16 C          66.8706   92.9453   11.1976 C.ar    1  UNL1        0.0559
     17 C          66.6794   94.4209   11.0081 C.ar    1  UNL1        0.2586
     18 O          65.8628   95.2040   11.9930 O.2     1  UNL1       -0.2673
     19 C          61.5413   87.4999   10.7793 C.3     1  UNL1        0.0575
     20 C          62.2251   86.3257   10.1440 C.ar    1  UNL1        0.0044
     21 C          62.4226   86.1105    8.6727 C.ar    1  UNL1        0.0966
     22 N          63.1510   84.8123    8.4879 N.ar    1  UNL1       -0.2273
     23 C          63.4038   84.2253    9.8449 C.ar    1  UNL1        0.1403
     24 N          64.0812   82.9600   10.2808 N.ar    1  UNL1       -0.3367
     25 C          64.1862   82.6300   11.7403 C.ar    1  UNL1        0.0850
     26 C          63.6139   83.5653   12.7638 C.ar    1  UNL1        0.0747
     27 CL         63.7190   83.2353   14.2233 Cl      1  UNL1       -0.0807
     28 C          62.9366   84.8307   12.3279 C.ar    1  UNL1        0.0156
     29 C          62.8316   85.1607   10.8685 C.ar    1  UNL1        0.0327
     30 H          64.4567   82.3461    9.6090 H       1  UNL1        0.1674
@<TRIPOS>BOND
     1    10    11    1
     2    11    12   ar
     3    12    13   ar
     4    13    14    1
     5    13    15   ar
     6    15    16   ar
     7    16     9    1
     8     9     7    1
     9     7     1    1
    10     1     2   ar
    11     2     3   ar
    12     3     4   ar
    13     4    19    1
    14    19    20    1
    15    20    21   ar
    16    21    22   ar
    17    22    23   ar
    18    23    24   ar
    19    24    25   ar
    20    25    26   ar
    21    26    27    1
    22    26    28   ar
    23    28    29   ar
    24     4     5   ar
    25     5     6   ar
    26    16    17   ar
    27    17    18    2
    28    17    11   ar
    29     6     1   ar
    30    29    20   ar
    31    29    23    1
    32     7     8    1
    33    24    30    1
@<TRIPOS>MOLECULE
*****
 30 33 0 0 0
SMALL
GASTEIGER

@<TRIPOS>ATOM
      1 C          63.6463   86.6874   15.4884 C.ar    1  UNL1        0.2172
      2 N          64.3245   87.4723   14.4049 N.ar    1  UNL1       -0.2126
      3 C          64.4443   88.9629   14.5215 C.ar    1  UNL1        0.0994
      4 C          63.8858   89.6687   15.7216 C.ar    1  UNL1        0.0207
      5 C          63.2076   88.8838   16.8050 C.ar    1  UNL1        0.0994
      6 N          63.0878   87.3932   16.6884 N.ar    1  UNL1       -0.2126
      7 N          63.5264   85.1968   15.3719 N.pl3   1  UNL1       -0.2989
      8 H          62.7994   84.7235   15.8374 H       1  UNL1        0.1500
      9 C          64.5143   84.4271   14.5461 C.3     1  UNL1        0.1213
     10 C          61.6871   80.2162   13.4170 C.3     1  UNL1        0.1337
     11 N          62.6181   81.3100   12.9848 N.ar    1  UNL1       -0.2904
     12 C          63.0665   81.3921   11.5557 C.ar    1  UNL1        0.1083
     13 C          63.9975   82.4859   11.1235 C.ar    1  UNL1        0.1572
     14 F          64.4458   82.5680    9.6944 F       1  UNL1       -0.2026
     15 C          64.4800   83.4976   12.1203 C.ar    1  UNL1        0.0333
     16 C          64.0316   83.4154   13.5493 C.ar    1  UNL1        0.0559
     17 C          63.1007   82.3216   13.9816 C.ar    1  UNL1        0.2586
     18 O          62.6523   82.2395   15.4106 O.2     1  UNL1       -0.2673
     19 C          64.0056   91.1594   15.8381 C.3     1  UNL1        0.0575
     20 C          65.1058   91.8820   15.1187 C.ar    1  UNL1        0.0044
     21 C          66.3042   92.5213   15.7551 C.ar    1  UNL1        0.0966
     22 N          67.1398   93.1264   14.6663 N.ar    1  UNL1       -0.2273
     23 C          66.4578   92.8611   13.3569 C.ar    1  UNL1        0.1403
     24 N          66.8190   93.2205   11.9461 N.ar    1  UNL1       -0.3367
     25 C          65.9232   92.8107   10.8149 C.ar    1  UNL1        0.0850
     26 C          64.6661   92.0415   11.0946 C.ar    1  UNL1        0.0747
     27 CL         63.7703   91.6317    9.9633 Cl      1  UNL1       -0.0807
     28 C          64.3049   91.6822   12.5053 C.ar    1  UNL1        0.0156
     29 C          65.2007   92.0919   13.6365 C.ar    1  UNL1        0.0327
     30 H          67.6441   93.7253   11.7626 H       1  UNL1        0.1674
@<TRIPOS>BOND
     1    10    11    1
     2    11    12   ar
     3    12    13   ar
     4    13    14    1
     5    13    15   ar
     6    15    16   ar
     7    16     9    1
     8     9     7    1
     9     7     1    1
    10     1     2   ar
    11     2     3   ar
    12     3     4   ar
    13     4    19    1
    14    19    20    1
    15    20    21   ar
    16    21    22   ar
    17    22    23   ar
    18    23    24   ar
    19    24    25   ar
    20    25    26   ar
    21    26    27    1
    22    26    28   ar
    23    28    29   ar
    24     4     5   ar
    25     5     6   ar
    26    16    17   ar
    27    17    18    2
    28    17    11   ar
    29     6     1   ar
    30    29    20   ar
    31    29    23    1
    32     7     8    1
    33    24    30    1
@<TRIPOS>MOLECULE
*****
 30 33 0 0 0
SMALL
GASTEIGER

@<TRIPOS>ATOM
      1 C          64.0899   86.5573   14.3833 C.ar    1  UNL1        0.2172
      2 N          63.5174   86.5214   12.9973 N.ar    1  UNL1       -0.2126
      3 C          63.1242   87.7981   12.3151 C.ar    1  UNL1        0.0994
      4 C          63.3034   89.1106   13.0189 C.ar    1  UNL1        0.0207
      5 C          63.8758   89.1465   14.4049 C.ar    1  UNL1        0.0994
      6 N          64.2691   87.8698   15.0871 N.ar    1  UNL1       -0.2126
      7 N          64.4832   85.2807   15.0656 N.pl3   1  UNL1       -0.2989
      8 H          64.3334   85.1730   16.0327 H       1  UNL1        0.1500
      9 C          65.1046   84.1680   14.2745 C.3     1  UNL1        0.1213
     10 C          61.0200   80.9618   14.0851 C.3     1  UNL1        0.1337
     11 N          62.1926   81.6129   13.4135 N.ar    1  UNL1       -0.2904
     12 C          62.4956   81.3119   11.9756 C.ar    1  UNL1        0.1083
     13 C          63.6682   81.9630   11.3040 C.ar    1  UNL1        0.1572
     14 F          63.9711   81.6620    9.8660 F       1  UNL1       -0.2026
     15 C          64.5379   82.9150   12.0703 C.ar    1  UNL1        0.0333
     16 C          64.2349   83.2160   13.5083 C.ar    1  UNL1        0.0559
     17 C          63.0623   82.5649   14.1799 C.ar    1  UNL1        0.2586
     18 O          62.7593   82.8658   15.6178 O.2     1  UNL1       -0.2673
     19 C          62.9101   90.3873   12.3366 C.3     1  UNL1        0.0575
     20 C          63.9646   91.3639   11.9071 C.ar    1  UNL1        0.0044
     21 C          64.2064   91.8407   10.5057 C.ar    1  UNL1        0.0966
     22 N          65.3537   92.8065   10.5362 N.ar    1  UNL1       -0.2273
     23 C          65.8209   92.9266   11.9565 C.ar    1  UNL1        0.1403
     24 N          66.9172   93.7326   12.5878 N.ar    1  UNL1       -0.3367
     25 C          67.1549   93.6470   14.0663 C.ar    1  UNL1        0.0850
     26 C          66.2963   92.7554   14.9136 C.ar    1  UNL1        0.0747
     27 CL         66.5341   92.6698   16.3922 Cl      1  UNL1       -0.0807
     28 C          65.2001   91.9493   14.2824 C.ar    1  UNL1        0.0156
     29 C          64.9624   92.0350   12.8038 C.ar    1  UNL1        0.0327
     30 H          67.4806   94.3179   12.0317 H       1  UNL1        0.1674
@<TRIPOS>BOND
     1    10    11    1
     2    11    12   ar
     3    12    13   ar
     4    13    14    1
     5    13    15   ar
     6    15    16   ar
     7    16     9    1
     8     9     7    1
     9     7     1    1
    10     1     2   ar
    11     2     3   ar
    12     3     4   ar
    13     4    19    1
    14    19    20    1
    15    20    21   ar
    16    21    22   ar
    17    22    23   ar
    18    23    24   ar
    19    24    25   ar
    20    25    26   ar
    21    26    27    1
    22    26    28   ar
    23    28    29   ar
    24     4     5   ar
    25     5     6   ar
    26    16    17   ar
    27    17    18    2
    28    17    11   ar
    29     6     1   ar
    30    29    20   ar
    31    29    23    1
    32     7     8    1
    33    24    30    1
@<TRIPOS>MOLECULE
*****
 30 33 0 0 0
SMALL
GASTEIGER

@<TRIPOS>ATOM
      1 C          62.1935   87.7767   11.3195 C.ar    1  UNL1        0.2172
      2 N          62.0484   88.5444   10.0390 N.ar    1  UNL1       -0.2126
      3 C          62.5963   89.9367    9.9332 C.ar    1  UNL1        0.0994
      4 C          63.2893   90.5613   11.1078 C.ar    1  UNL1        0.0207
      5 C          63.4344   89.7936   12.3883 C.ar    1  UNL1        0.0994
      6 N          62.8865   88.4013   12.4940 N.ar    1  UNL1       -0.2126
      7 N          61.6456   86.3844   11.4253 N.pl3   1  UNL1       -0.2989
      8 H          60.7743   86.2298   11.8568 H       1  UNL1        0.1500
      9 C          62.4251   85.2276   10.8738 C.3     1  UNL1        0.1213
     10 C          64.1102   83.3813   15.4292 C.3     1  UNL1        0.1337
     11 N          63.6110   83.1420   14.0351 N.ar    1  UNL1       -0.2904
     12 C          63.4551   81.7402   13.5245 C.ar    1  UNL1        0.1083
     13 C          62.9560   81.5008   12.1304 C.ar    1  UNL1        0.1572
     14 F          62.8001   80.0990   11.6200 F       1  UNL1       -0.2026
     15 C          62.6126   82.6633   11.2469 C.ar    1  UNL1        0.0333
     16 C          62.7685   84.0652   11.7574 C.ar    1  UNL1        0.0559
     17 C          63.2677   84.3045   13.1515 C.ar    1  UNL1        0.2586
     18 O          63.4235   85.7063   13.6621 O.2     1  UNL1       -0.2673
     19 C          63.8372   91.9537   11.0019 C.3     1  UNL1        0.0575
     20 C          65.2587   92.2320   11.3918 C.ar    1  UNL1        0.0044
     21 C          66.4051   92.4492   10.4492 C.ar    1  UNL1        0.0966
     22 N          67.6382   92.6933   11.2677 N.ar    1  UNL1       -0.2273
     23 C          67.2539   92.6270   12.7161 C.ar    1  UNL1        0.1403
     24 N          68.0531   92.7895   13.9750 N.ar    1  UNL1       -0.3367
     25 C          67.3816   92.6667   15.3107 C.ar    1  UNL1        0.0850
     26 C          65.9109   92.3816   15.3874 C.ar    1  UNL1        0.0747
     27 CL         65.2395   92.2589   16.7231 Cl      1  UNL1       -0.0807
     28 C          65.1118   92.2192   14.1285 C.ar    1  UNL1        0.0156
     29 C          65.7832   92.3419   12.7928 C.ar    1  UNL1        0.0327
     30 H          69.0183   92.9766   13.9246 H       1  UNL1        0.1674
@<TRIPOS>BOND
     1    10    11    1
     2    11    12   ar
     3    12    13   ar
     4    13    14    1
     5    13    15   ar
     6    15    16   ar
     7    16     9    1
     8     9     7    1
     9     7     1    1
    10     1     2   ar
    11     2     3   ar
    12     3     4   ar
    13     4    19    1
    14    19    20    1
    15    20    21   ar
    16    21    22   ar
    17    22    23   ar
    18    23    24   ar
    19    24    25   ar
    20    25    26   ar
    21    26    27    1
    22    26    28   ar
    23    28    29   ar
    24     4     5   ar
    25     5     6   ar
    26    16    17   ar
    27    17    18    2
    28    17    11   ar
    29     6     1   ar
    30    29    20   ar
    31    29    23    1
    32     7     8    1
    33    24    30    1
@<TRIPOS>MOLECULE
*****
 30 33 0 0 0
SMALL
GASTEIGER

@<TRIPOS>ATOM
      1 C          60.9179   87.6215    9.9606 C.ar    1  UNL1        0.2172
      2 N          61.0160   86.7588   11.1838 N.ar    1  UNL1       -0.2126
      3 C          61.8756   85.5297   11.1675 C.ar    1  UNL1        0.0994
      4 C          62.6371   85.1633    9.9282 C.ar    1  UNL1        0.0207
      5 C          62.5390   86.0260    8.7051 C.ar    1  UNL1        0.0994
      6 N          61.6794   87.2551    8.7213 N.ar    1  UNL1       -0.2126
      7 N          60.0583   88.8506    9.9768 N.pl3   1  UNL1       -0.2989
      8 H          59.0810   88.7667   10.0604 H       1  UNL1        0.1500
      9 C          60.6877   90.2077    9.8654 C.3     1  UNL1        0.1213
     10 C          63.1141   90.1833   14.4602 C.3     1  UNL1        0.1337
     11 N          63.0946   90.5398   13.0033 N.ar    1  UNL1       -0.2904
     12 C          64.2688   91.2407   12.3869 C.ar    1  UNL1        0.1083
     13 C          64.2493   91.5973   10.9301 C.ar    1  UNL1        0.1572
     14 F          65.4236   92.2982   10.3137 F       1  UNL1       -0.2026
     15 C          63.0556   91.2529   10.0896 C.ar    1  UNL1        0.0333
     16 C          61.8814   90.5520   10.7060 C.ar    1  UNL1        0.0559
     17 C          61.9009   90.1955   12.1629 C.ar    1  UNL1        0.2586
     18 O          60.7267   89.4945   12.7792 O.2     1  UNL1       -0.2673
     19 C          63.4968   83.9340    9.9121 C.3     1  UNL1        0.0575
     20 C          63.4547   82.9742   11.0640 C.ar    1  UNL1        0.0044
     21 C          63.1446   81.5090   10.9799 C.ar    1  UNL1        0.0966
     22 N          63.2136   80.9404   12.3662 N.ar    1  UNL1       -0.2273
     23 C          63.5663   82.0541   13.3071 C.ar    1  UNL1        0.1403
     24 N          63.7710   82.0861   14.7927 N.ar    1  UNL1       -0.3367
     25 C          64.1247   83.3750   15.4734 C.ar    1  UNL1        0.0850
     26 C          64.2737   84.6320   14.6686 C.ar    1  UNL1        0.0747
     27 CL         64.6274   85.9210   15.3494 Cl      1  UNL1       -0.0807
     28 C          64.0690   84.6001   13.1830 C.ar    1  UNL1        0.0156
     29 C          63.7153   83.3111   12.5023 C.ar    1  UNL1        0.0327
     30 H          63.6732   81.2611   15.3209 H       1  UNL1        0.1674
@<TRIPOS>BOND
     1    10    11    1
     2    11    12   ar
     3    12    13   ar
     4    13    14    1
     5    13    15   ar
     6    15    16   ar
     7    16     9    1
     8     9     7    1
     9     7     1    1
    10     1     2   ar
    11     2     3   ar
    12     3     4   ar
    13     4    19    1
    14    19    20    1
    15    20    21   ar
    16    21    22   ar
    17    22    23   ar
    18    23    24   ar
    19    24    25   ar
    20    25    26   ar
    21    26    27    1
    22    26    28   ar
    23    28    29   ar
    24     4     5   ar
    25     5     6   ar
    26    16    17   ar
    27    17    18    2
    28    17    11   ar
    29     6     1   ar
    30    29    20   ar
    31    29    23    1
    32     7     8    1
    33    24    30    1
@<TRIPOS>MOLECULE
*****
 30 33 0 0 0
SMALL
GASTEIGER

@<TRIPOS>ATOM
      1 C          62.1076   87.8560   11.2909 C.ar    1  UNL1        0.2172
      2 N          62.0410   88.5949    9.9872 N.ar    1  UNL1       -0.2126
      3 C          62.6379   89.9661    9.8710 C.ar    1  UNL1        0.0994
      4 C          63.3014   90.5983   11.0584 C.ar    1  UNL1        0.0207
      5 C          63.3681   89.8594   12.3621 C.ar    1  UNL1        0.0994
      6 N          62.7711   88.4882   12.4783 N.ar    1  UNL1       -0.2126
      7 N          61.5107   86.4848   11.4072 N.pl3   1  UNL1       -0.2989
      8 H          60.5466   86.3805   11.5770 H       1  UNL1        0.1500
      9 C          62.3826   85.2726   11.2646 C.3     1  UNL1        0.1213
     10 C          63.5358   80.9112   13.8431 C.3     1  UNL1        0.1337
     11 N          63.4999   82.4092   13.7751 N.ar    1  UNL1       -0.2904
     12 C          64.0049   83.2246   14.9284 C.ar    1  UNL1        0.1083
     13 C          63.9691   84.7226   14.8605 C.ar    1  UNL1        0.1572
     14 F          64.4741   85.5380   16.0139 F       1  UNL1       -0.2026
     15 C          63.4283   85.4053   13.6392 C.ar    1  UNL1        0.0333
     16 C          62.9234   84.5899   12.4859 C.ar    1  UNL1        0.0559
     17 C          62.9592   83.0918   12.5538 C.ar    1  UNL1        0.2586
     18 O          62.4542   82.2765   11.4005 O.2     1  UNL1       -0.2673
     19 C          63.8984   91.9696   10.9422 C.3     1  UNL1        0.0575
     20 C          65.3228   92.2045   11.3495 C.ar    1  UNL1        0.0044
     21 C          66.4876   92.3810   10.4211 C.ar    1  UNL1        0.0966
     22 N          67.7172   92.5897   11.2545 N.ar    1  UNL1       -0.2273
     23 C          67.3123   92.5421   12.6981 C.ar    1  UNL1        0.1403
     24 N          68.0998   92.6848   13.9666 N.ar    1  UNL1       -0.3367
     25 C          67.4076   92.5894   15.2939 C.ar    1  UNL1        0.0850
     26 C          65.9278   92.3514   15.3526 C.ar    1  UNL1        0.0747
     27 CL         65.2355   92.2560   16.6799 Cl      1  UNL1       -0.0807
     28 C          65.1402   92.2087   14.0840 C.ar    1  UNL1        0.0156
     29 C          65.8324   92.3040   12.7568 C.ar    1  UNL1        0.0327
     30 H          69.0711   92.8411   13.9281 H       1  UNL1        0.1674
@<TRIPOS>BOND
     1    10    11    1
     2    11    12   ar
     3    12    13   ar
     4    13    14    1
     5    13    15   ar
     6    15    16   ar
     7    16     9    1
     8     9     7    1
     9     7     1    1
    10     1     2   ar
    11     2     3   ar
    12     3     4   ar
    13     4    19    1
    14    19    20    1
    15    20    21   ar
    16    21    22   ar
    17    22    23   ar
    18    23    24   ar
    19    24    25   ar
    20    25    26   ar
    21    26    27    1
    22    26    28   ar
    23    28    29   ar
    24     4     5   ar
    25     5     6   ar
    26    16    17   ar
    27    17    18    2
    28    17    11   ar
    29     6     1   ar
    30    29    20   ar
    31    29    23    1
    32     7     8    1
    33    24    30    1
@<TRIPOS>MOLECULE
*****
 30 33 0 0 0
SMALL
GASTEIGER

@<TRIPOS>ATOM
      1 C          63.4319   86.4264   15.9553 C.ar    1  UNL1        0.2172
      2 N          64.2076   86.7755   14.7198 N.ar    1  UNL1       -0.2126
      3 C          64.4591   88.2132   14.3736 C.ar    1  UNL1        0.0994
      4 C          63.9350   89.3016   15.2627 C.ar    1  UNL1        0.0207
      5 C          63.1593   88.9524   16.4982 C.ar    1  UNL1        0.0994
      6 N          62.9078   87.5148   16.8445 N.ar    1  UNL1       -0.2126
      7 N          63.1804   84.9888   16.3016 N.pl3   1  UNL1       -0.2989
      8 H          62.4904   84.7555   16.9641 H       1  UNL1        0.1500
      9 C          63.9800   83.9065   15.6387 C.3     1  UNL1        0.1213
     10 C          63.8787   82.2685   10.7086 C.3     1  UNL1        0.1337
     11 N          63.3083   82.2495   12.0957 N.ar    1  UNL1       -0.2904
     12 C          62.1168   81.3923   12.4050 C.ar    1  UNL1        0.1083
     13 C          61.5464   81.3732   13.7922 C.ar    1  UNL1        0.1572
     14 F          60.3549   80.5160   14.1014 F       1  UNL1       -0.2026
     15 C          62.1675   82.2113   14.8701 C.ar    1  UNL1        0.0333
     16 C          63.3590   83.0685   14.5608 C.ar    1  UNL1        0.0559
     17 C          63.9294   83.0875   13.1736 C.ar    1  UNL1        0.2586
     18 O          65.1209   83.9447   12.8644 O.2     1  UNL1       -0.2673
     19 C          64.1866   90.7393   14.9164 C.3     1  UNL1        0.0575
     20 C          64.2428   91.1658   13.4794 C.ar    1  UNL1        0.0044
     21 C          65.2825   92.0544   12.8635 C.ar    1  UNL1        0.0966
     22 N          64.9513   92.2164   11.4095 N.ar    1  UNL1       -0.2273
     23 C          63.7069   91.4280   11.1268 C.ar    1  UNL1        0.1403
     24 N          62.9160   91.2174    9.8698 N.ar    1  UNL1       -0.3367
     25 C          61.6872   90.3576    9.8922 C.ar    1  UNL1        0.0850
     26 C          61.2492   89.7083   11.1715 C.ar    1  UNL1        0.0747
     27 CL         60.0203   88.8484   11.1938 Cl      1  UNL1       -0.0807
     28 C          62.0401   89.9189   12.4285 C.ar    1  UNL1        0.0156
     29 C          63.2690   90.7787   12.4061 C.ar    1  UNL1        0.0327
     30 H          63.2035   91.6436    9.0302 H       1  UNL1        0.1674
@<TRIPOS>BOND
     1    10    11    1
     2    11    12   ar
     3    12    13   ar
     4    13    14    1
     5    13    15   ar
     6    15    16   ar
     7    16     9    1
     8     9     7    1
     9     7     1    1
    10     1     2   ar
    11     2     3   ar
    12     3     4   ar
    13     4    19    1
    14    19    20    1
    15    20    21   ar
    16    21    22   ar
    17    22    23   ar
    18    23    24   ar
    19    24    25   ar
    20    25    26   ar
    21    26    27    1
    22    26    28   ar
    23    28    29   ar
    24     4     5   ar
    25     5     6   ar
    26    16    17   ar
    27    17    18    2
    28    17    11   ar
    29     6     1   ar
    30    29    20   ar
    31    29    23    1
    32     7     8    1
    33    24    30    1
