@<TRIPOS>MOLECULE
*****
 48 54 0 0 0
SMALL
GASTEIGER

@<TRIPOS>ATOM
      1 C          59.3875   88.9972    7.4484 C.3     1  UNL1        0.1543
      2 N          60.5219   89.6306    8.1979 N.am    1  UNL1       -0.2822
      3 C          60.5593   89.5671    9.6961 C.2     1  UNL1        0.3043
      4 O          59.4622   88.8702   10.4448 O.2     1  UNL1       -0.2526
      5 N          61.6937   90.2005   10.4456 N.am    1  UNL1       -0.2641
      6 C          61.7310   90.1370   11.9438 C.3     1  UNL1        0.0966
      7 C          62.8656   90.7705   12.6933 C.3     1  UNL1        0.0415
      8 C          63.9627   91.4674   11.9446 C.3     1  UNL1        0.0806
      9 C          63.9253   91.5309   10.4464 C.3     1  UNL1        0.0415
     10 C          62.7909   90.8975    9.6969 C.3     1  UNL1        0.0966
     11 H          61.2420   90.0880    7.7065 H       1  UNL1        0.1514
     12 N          65.0971   92.1008   12.6941 N.am    1  UNL1       -0.2613
     13 C          65.6299   91.4519   13.9371 C.3     1  UNL1        0.1228
     14 C          66.7644   92.0853   14.6866 C.ar    1  UNL1        0.0112
     15 C          67.2973   91.4364   15.9295 C.ar    1  UNL1       -0.0014
     16 C          68.4317   92.0698   16.6790 C.ar    1  UNL1       -0.0002
     17 C          69.0334   93.3522   16.1856 C.ar    1  UNL1        0.0013
     18 C          68.5005   94.0012   14.9426 C.ar    1  UNL1        0.0144
     19 C          67.3660   93.3677   14.1931 C.ar    1  UNL1        0.0492
     20 N          66.8332   94.0167   12.9501 N.am    1  UNL1       -0.2684
     21 C          65.6988   93.3832   12.2006 C.2     1  UNL1        0.3079
     22 O          65.1659   94.0322   10.9577 O.2     1  UNL1       -0.2522
     23 H          67.2281   94.8583   12.6263 H       1  UNL1        0.1564
     24 C          58.5300   89.8296    6.5419 C.2     1  UNL1        0.2439
     25 O          57.0368   89.7945    6.6811 O.2     1  UNL1       -0.2731
     26 N          59.1656   90.6969    5.4961 N.am    1  UNL1       -0.2781
     27 C          58.3081   91.5293    4.5896 C.3     1  UNL1        0.0948
     28 C          58.9437   92.3967    3.5438 C.3     1  UNL1        0.0375
     29 C          60.4369   92.4318    3.4046 C.3     1  UNL1        0.0609
     30 C          61.2944   91.5994    4.3112 C.3     1  UNL1        0.0375
     31 C          60.6587   90.7320    5.3570 C.3     1  UNL1        0.0948
     32 N          61.0725   93.2992    2.3589 N.3     1  UNL1       -0.2738
     33 C          62.3593   92.8763    1.7145 C.3     1  UNL1        0.0720
     34 C          62.9949   93.7437    0.6687 C.3     1  UNL1        0.0174
     35 C          62.3437   95.0340    0.2674 C.3     1  UNL1        0.0029
     36 C          61.0569   95.4569    0.9118 C.3     1  UNL1        0.0174
     37 C          60.4213   94.5894    1.9576 C.3     1  UNL1        0.0720
     38 C          59.1105   87.5313    7.6055 C.3     1  UNL1        0.0554
     39 C          62.7125   84.1474    6.0009 C.3     1  UNL1        0.0288
     40 C          62.0336   84.8928    7.1114 C.2     1  UNL1       -0.0148
     41 C          60.9114   85.8394    6.8031 C.2     1  UNL1       -0.0104
     42 C          60.2326   86.5848    7.9137 C.2     1  UNL1       -0.0193
     43 C          60.6758   86.3837    9.3326 C.2     1  UNL1        0.0147
     44 C          61.7979   85.4373    9.6409 C.2     1  UNL1        0.1099
     45 N          62.4476   85.0375   10.9324 N.2     1  UNL1       -0.1311
     46 N          63.5280   84.0450   10.6201 N.2     1  UNL1       -0.0465
     47 N          63.5460   83.8313    9.1355 N.2     1  UNL1       -0.1469
     48 C          62.4768   84.6918    8.5303 C.3     1  UNL1        0.1865
@<TRIPOS>BOND
     1    39    40    1
     2    40    41    2
     3    41    42    1
     4    42    38    1
     5     1    38    1
     6     1     2    1
     7     2     3   am
     8     3     4    2
     9     3     5   am
    10     5     6    1
    11     6     7    1
    12     7     8    1
    13     8    12    1
    14    12    13    1
    15    13    14    1
    16    14    15   ar
    17    15    16   ar
    18    16    17   ar
    19    17    18   ar
    20    18    19   ar
    21    19    20    1
    22    20    21   am
    23    21    22    2
    24     8     9    1
    25     9    10    1
    26     1    24    1
    27    24    25    2
    28    24    26   am
    29    26    27    1
    30    27    28    1
    31    28    29    1
    32    29    32    1
    33    32    33    1
    34    33    34    1
    35    34    35    1
    36    35    36    1
    37    36    37    1
    38    29    30    1
    39    30    31    1
    40    42    43    2
    41    43    44    1
    42    44    45    2
    43    45    46    1
    44    46    47    2
    45    47    48    1
    46    48    40    1
    47    10     5    1
    48    31    26    1
    49    48    44    1
    50    21    12   am
    51    37    32    1
    52    19    14   ar
    53     2    11    1
    54    20    23    1
@<TRIPOS>MOLECULE
*****
 48 54 0 0 0
SMALL
GASTEIGER

@<TRIPOS>ATOM
      1 C          60.7210   88.0338    8.9091 C.3     1  UNL1        0.1543
      2 N          60.7804   88.9679    7.7370 N.am    1  UNL1       -0.2822
      3 C          59.5140   89.4123    7.0672 C.2     1  UNL1        0.3043
      4 O          58.1882   88.9227    7.5695 O.2     1  UNL1       -0.2526
      5 N          59.5734   90.3464    5.8951 N.am    1  UNL1       -0.2641
      6 C          58.3070   90.7909    5.2253 C.3     1  UNL1        0.0966
      7 C          58.3665   91.7251    4.0532 C.3     1  UNL1        0.0415
      8 C          59.6923   92.2147    3.5509 C.3     1  UNL1        0.0806
      9 C          60.9587   91.7703    4.2207 C.3     1  UNL1        0.0415
     10 C          60.8993   90.8362    5.3928 C.3     1  UNL1        0.0966
     11 H          61.6506   89.2893    7.4074 H       1  UNL1        0.1514
     12 N          59.7517   93.1488    2.3788 N.am    1  UNL1       -0.2613
     13 C          59.7388   92.6016    0.9822 C.3     1  UNL1        0.1228
     14 C          59.7983   93.5358   -0.1899 C.ar    1  UNL1        0.0112
     15 C          59.7854   92.9886   -1.5865 C.ar    1  UNL1       -0.0014
     16 C          59.8448   93.9227   -2.7586 C.ar    1  UNL1       -0.0002
     17 C          59.9171   95.4042   -2.5341 C.ar    1  UNL1        0.0013
     18 C          59.9300   95.9514   -1.1376 C.ar    1  UNL1        0.0144
     19 C          59.8706   95.0171    0.0346 C.ar    1  UNL1        0.0492
     20 N          59.8834   95.5643    1.4311 N.am    1  UNL1       -0.2684
     21 C          59.8240   94.6302    2.6032 C.2     1  UNL1        0.3079
     22 O          59.8369   95.1774    3.9998 O.2     1  UNL1       -0.2522
     23 H          59.9309   96.5366    1.5784 H       1  UNL1        0.1564
     24 C          60.4885   88.5751   10.2886 C.2     1  UNL1        0.2439
     25 O          59.1959   88.2949   10.9962 O.2     1  UNL1       -0.2731
     26 N          61.5486   89.3966   10.9604 N.am    1  UNL1       -0.2781
     27 C          61.3160   89.9379   12.3399 C.3     1  UNL1        0.0948
     28 C          62.3761   90.7594   13.0117 C.3     1  UNL1        0.0375
     29 C          63.6687   91.0396   12.3041 C.3     1  UNL1        0.0609
     30 C          63.9012   90.4983   10.9246 C.3     1  UNL1        0.0375
     31 C          62.8411   89.6767   10.2528 C.3     1  UNL1        0.0948
     32 N          64.7288   91.8611   12.9759 N.3     1  UNL1       -0.2738
     33 C          65.4306   92.9470   12.2154 C.3     1  UNL1        0.0720
     34 C          66.4906   93.7685   12.8872 C.3     1  UNL1        0.0174
     35 C          66.8489   93.5041   14.3197 C.3     1  UNL1        0.0029
     36 C          66.1472   92.4182   15.0802 C.3     1  UNL1        0.0174
     37 C          65.0871   91.5967   14.4083 C.3     1  UNL1        0.0720
     38 C          60.8941   86.5582    8.7018 C.3     1  UNL1        0.0554
     39 C          64.5280   82.9674    9.6509 C.3     1  UNL1        0.0288
     40 C          63.5189   83.9582   10.1510 C.2     1  UNL1       -0.0148
     41 C          62.7110   84.7628    9.1763 C.2     1  UNL1       -0.0104
     42 C          61.7020   85.7536    9.6764 C.2     1  UNL1       -0.0193
     43 C          61.5008   85.9398   11.1512 C.2     1  UNL1        0.0147
     44 C          62.3086   85.1351   12.1258 C.2     1  UNL1        0.1099
     45 N          62.3300   85.1017   13.6253 N.2     1  UNL1       -0.1311
     46 N          63.3522   84.0903   14.0519 N.2     1  UNL1       -0.0465
     47 N          63.9626   83.4986   12.8161 N.2     1  UNL1       -0.1469
     48 C          63.3177   84.1443   11.6257 C.3     1  UNL1        0.1865
@<TRIPOS>BOND
     1    39    40    1
     2    40    41    2
     3    41    42    1
     4    42    38    1
     5     1    38    1
     6     1     2    1
     7     2     3   am
     8     3     4    2
     9     3     5   am
    10     5     6    1
    11     6     7    1
    12     7     8    1
    13     8    12    1
    14    12    13    1
    15    13    14    1
    16    14    15   ar
    17    15    16   ar
    18    16    17   ar
    19    17    18   ar
    20    18    19   ar
    21    19    20    1
    22    20    21   am
    23    21    22    2
    24     8     9    1
    25     9    10    1
    26     1    24    1
    27    24    25    2
    28    24    26   am
    29    26    27    1
    30    27    28    1
    31    28    29    1
    32    29    32    1
    33    32    33    1
    34    33    34    1
    35    34    35    1
    36    35    36    1
    37    36    37    1
    38    29    30    1
    39    30    31    1
    40    42    43    2
    41    43    44    1
    42    44    45    2
    43    45    46    1
    44    46    47    2
    45    47    48    1
    46    48    40    1
    47    10     5    1
    48    31    26    1
    49    48    44    1
    50    21    12   am
    51    37    32    1
    52    19    14   ar
    53     2    11    1
    54    20    23    1
@<TRIPOS>MOLECULE
*****
 48 54 0 0 0
SMALL
GASTEIGER

@<TRIPOS>ATOM
      1 C          60.2843   89.2672    8.2220 C.3     1  UNL1        0.1543
      2 N          60.6410   90.0313    6.9815 N.am    1  UNL1       -0.2822
      3 C          59.5576   90.5756    6.0984 C.2     1  UNL1        0.3043
      4 O          58.1175   90.3559    6.4557 O.2     1  UNL1       -0.2526
      5 N          59.9144   91.3397    4.8579 N.am    1  UNL1       -0.2641
      6 C          58.8310   91.8841    3.9747 C.3     1  UNL1        0.0966
      7 C          59.1878   92.6482    2.7342 C.3     1  UNL1        0.0415
      8 C          60.6280   92.8680    2.3769 C.3     1  UNL1        0.0806
      9 C          61.7113   92.3236    3.2601 C.3     1  UNL1        0.0415
     10 C          61.3546   91.5595    4.5005 C.3     1  UNL1        0.0966
     11 H          61.5862   90.1755    6.7470 H       1  UNL1        0.1514
     12 N          60.9847   93.6321    1.1364 N.am    1  UNL1       -0.2613
     13 C          61.6596   92.9336   -0.0066 C.3     1  UNL1        0.1228
     14 C          62.0164   93.6978   -1.2472 C.ar    1  UNL1        0.0112
     15 C          62.6913   92.9993   -2.3902 C.ar    1  UNL1       -0.0014
     16 C          63.0481   93.7634   -3.6307 C.ar    1  UNL1       -0.0002
     17 C          62.7299   95.2261   -3.7282 C.ar    1  UNL1        0.0013
     18 C          62.0549   95.9245   -2.5851 C.ar    1  UNL1        0.0144
     19 C          61.6982   95.1604   -1.3446 C.ar    1  UNL1        0.0492
     20 N          61.0233   95.8588   -0.2015 N.am    1  UNL1       -0.2684
     21 C          60.6665   95.0947    1.0389 C.2     1  UNL1        0.3079
     22 O          59.9916   95.7932    2.1820 O.2     1  UNL1       -0.2522
     23 H          60.8144   96.8188   -0.2655 H       1  UNL1        0.1564
     24 C          60.1963   87.7703    8.1816 C.2     1  UNL1        0.2439
     25 O          59.3471   87.0966    7.1446 O.2     1  UNL1       -0.2731
     26 N          60.9574   86.9471    9.1781 N.am    1  UNL1       -0.2781
     27 C          60.8694   85.4502    9.1376 C.3     1  UNL1        0.0948
     28 C          61.6305   84.6270   10.1341 C.3     1  UNL1        0.0375
     29 C          62.4796   85.3006   11.1711 C.3     1  UNL1        0.0609
     30 C          62.5676   86.7975   11.2115 C.3     1  UNL1        0.0375
     31 C          61.8065   87.6207   10.2150 C.3     1  UNL1        0.0948
     32 N          63.2407   84.4774   12.1675 N.3     1  UNL1       -0.2738
     33 C          63.5489   83.0393   11.8730 C.3     1  UNL1        0.0720
     34 C          64.3100   82.2160   12.8695 C.3     1  UNL1        0.0174
     35 C          64.7630   82.8310   14.1606 C.3     1  UNL1        0.0029
     36 C          64.4548   84.2691   14.4551 C.3     1  UNL1        0.0174
     37 C          63.6937   85.0924   13.4585 C.3     1  UNL1        0.0720
     38 C          60.0155   89.9999    9.5030 C.3     1  UNL1        0.0554
     39 C          64.7055   92.0401   10.4201 C.3     1  UNL1        0.0288
     40 C          63.4866   91.3145   10.9077 C.2     1  UNL1       -0.0148
     41 C          62.3605   91.0200    9.9615 C.2     1  UNL1       -0.0104
     42 C          61.1416   90.2944   10.4491 C.2     1  UNL1       -0.0193
     43 C          61.0488   89.8633   11.8829 C.2     1  UNL1        0.0147
     44 C          62.1749   90.1578   12.8289 C.2     1  UNL1        0.1099
     45 N          62.3657   89.8585   14.2864 N.2     1  UNL1       -0.1311
     46 N          63.7025   90.3992   14.6995 N.2     1  UNL1       -0.0465
     47 N          64.3379   91.0326   13.4974 N.2     1  UNL1       -0.1469
     48 C          63.3938   90.8834   12.3414 C.3     1  UNL1        0.1865
@<TRIPOS>BOND
     1    39    40    1
     2    40    41    2
     3    41    42    1
     4    42    38    1
     5     1    38    1
     6     1     2    1
     7     2     3   am
     8     3     4    2
     9     3     5   am
    10     5     6    1
    11     6     7    1
    12     7     8    1
    13     8    12    1
    14    12    13    1
    15    13    14    1
    16    14    15   ar
    17    15    16   ar
    18    16    17   ar
    19    17    18   ar
    20    18    19   ar
    21    19    20    1
    22    20    21   am
    23    21    22    2
    24     8     9    1
    25     9    10    1
    26     1    24    1
    27    24    25    2
    28    24    26   am
    29    26    27    1
    30    27    28    1
    31    28    29    1
    32    29    32    1
    33    32    33    1
    34    33    34    1
    35    34    35    1
    36    35    36    1
    37    36    37    1
    38    29    30    1
    39    30    31    1
    40    42    43    2
    41    43    44    1
    42    44    45    2
    43    45    46    1
    44    46    47    2
    45    47    48    1
    46    48    40    1
    47    10     5    1
    48    31    26    1
    49    48    44    1
    50    21    12   am
    51    37    32    1
    52    19    14   ar
    53     2    11    1
    54    20    23    1
@<TRIPOS>MOLECULE
*****
 48 54 0 0 0
SMALL
GASTEIGER

@<TRIPOS>ATOM
      1 C          60.6496   88.1436    8.7205 C.3     1  UNL1        0.1543
      2 N          60.8394   89.0454    7.5370 N.am    1  UNL1       -0.2822
      3 C          59.6475   89.6500    6.8560 C.2     1  UNL1        0.3043
      4 O          58.2658   89.3527    7.3584 O.2     1  UNL1       -0.2526
      5 N          59.8373   90.5518    5.6725 N.am    1  UNL1       -0.2641
      6 C          58.6454   91.1564    4.9915 C.3     1  UNL1        0.0966
      7 C          58.8352   92.0583    3.8079 C.3     1  UNL1        0.0415
      8 C          60.2169   92.3555    3.3055 C.3     1  UNL1        0.0806
      9 C          61.4088   91.7509    3.9866 C.3     1  UNL1        0.0415
     10 C          61.2190   90.8491    5.1700 C.3     1  UNL1        0.0966
     11 H          61.7463   89.2405    7.2072 H       1  UNL1        0.1514
     12 N          60.4067   93.2574    2.1220 N.am    1  UNL1       -0.2613
     13 C          61.6105   94.1488    2.0438 C.3     1  UNL1        0.1228
     14 C          61.8003   95.0507    0.8603 C.ar    1  UNL1        0.0112
     15 C          63.0041   95.9421    0.7820 C.ar    1  UNL1       -0.0014
     16 C          63.1939   96.8439   -0.4014 C.ar    1  UNL1       -0.0002
     17 C          62.1799   96.8544   -1.5068 C.ar    1  UNL1        0.0013
     18 C          60.9760   95.9629   -1.4285 C.ar    1  UNL1        0.0144
     19 C          60.7863   95.0610   -0.2450 C.ar    1  UNL1        0.0492
     20 N          59.5824   94.1696   -0.1667 N.am    1  UNL1       -0.2684
     21 C          59.3926   93.2678    1.0167 C.2     1  UNL1        0.3079
     22 O          58.1888   92.3763    1.0950 O.2     1  UNL1       -0.2522
     23 H          58.9169   94.1764   -0.8922 H       1  UNL1        0.1564
     24 C          60.3675   88.7294   10.0722 C.2     1  UNL1        0.2439
     25 O          59.0198   88.5429   10.7040 O.2     1  UNL1       -0.2731
     26 N          61.4329   89.5016   10.7922 N.am    1  UNL1       -0.2781
     27 C          61.1508   90.0875   12.1439 C.3     1  UNL1        0.0948
     28 C          62.2162   90.8597   12.8639 C.3     1  UNL1        0.0375
     29 C          63.5639   91.0462   12.2321 C.3     1  UNL1        0.0609
     30 C          63.8460   90.4604   10.8804 C.3     1  UNL1        0.0375
     31 C          62.7805   89.6881   10.1604 C.3     1  UNL1        0.0948
     32 N          64.6294   91.8184   12.9521 N.3     1  UNL1       -0.2738
     33 C          65.3758   92.9082   12.2412 C.3     1  UNL1        0.0720
     34 C          66.4412   93.6804   12.9611 C.3     1  UNL1        0.0174
     35 C          66.7603   93.3630   14.3921 C.3     1  UNL1        0.0029
     36 C          66.0139   92.2732   15.1029 C.3     1  UNL1        0.0174
     37 C          64.9484   91.5010   14.3829 C.3     1  UNL1        0.0720
     38 C          60.7419   86.6559    8.5522 C.3     1  UNL1        0.0554
     39 C          62.1222   85.3713   13.3942 C.3     1  UNL1        0.0288
     40 C          62.2767   85.2036   11.9116 C.2     1  UNL1       -0.0148
     41 C          61.4320   86.0136   10.9732 C.2     1  UNL1       -0.0104
     42 C          61.5865   85.8459    9.4906 C.2     1  UNL1       -0.0193
     43 C          62.5856   84.8683    8.9465 C.2     1  UNL1        0.0147
     44 C          63.4302   84.0584    9.8849 C.2     1  UNL1        0.1099
     45 N          64.4903   83.0250    9.6433 N.2     1  UNL1       -0.1311
     46 N          64.9910   82.5540   10.9765 N.2     1  UNL1       -0.0465
     47 N          64.2404   83.2963   12.0421 N.2     1  UNL1       -0.1469
     48 C          63.2757   84.2260   11.3675 C.3     1  UNL1        0.1865
@<TRIPOS>BOND
     1    39    40    1
     2    40    41    2
     3    41    42    1
     4    42    38    1
     5     1    38    1
     6     1     2    1
     7     2     3   am
     8     3     4    2
     9     3     5   am
    10     5     6    1
    11     6     7    1
    12     7     8    1
    13     8    12    1
    14    12    13    1
    15    13    14    1
    16    14    15   ar
    17    15    16   ar
    18    16    17   ar
    19    17    18   ar
    20    18    19   ar
    21    19    20    1
    22    20    21   am
    23    21    22    2
    24     8     9    1
    25     9    10    1
    26     1    24    1
    27    24    25    2
    28    24    26   am
    29    26    27    1
    30    27    28    1
    31    28    29    1
    32    29    32    1
    33    32    33    1
    34    33    34    1
    35    34    35    1
    36    35    36    1
    37    36    37    1
    38    29    30    1
    39    30    31    1
    40    42    43    2
    41    43    44    1
    42    44    45    2
    43    45    46    1
    44    46    47    2
    45    47    48    1
    46    48    40    1
    47    10     5    1
    48    31    26    1
    49    48    44    1
    50    21    12   am
    51    37    32    1
    52    19    14   ar
    53     2    11    1
    54    20    23    1
@<TRIPOS>MOLECULE
*****
 48 54 0 0 0
SMALL
GASTEIGER

@<TRIPOS>ATOM
      1 C          60.1302   89.5942    7.5881 C.3     1  UNL1        0.1543
      2 N          60.7618   90.1569    6.3494 N.am    1  UNL1       -0.2822
      3 C          59.9554   91.0140    5.4194 C.2     1  UNL1        0.3043
      4 O          58.5173   91.3084    5.7280 O.2     1  UNL1       -0.2526
      5 N          60.5870   91.5767    4.1807 N.am    1  UNL1       -0.2641
      6 C          59.7805   92.4339    3.2506 C.3     1  UNL1        0.0966
      7 C          60.4122   92.9966    2.0119 C.3     1  UNL1        0.0415
      8 C          61.8502   92.7022    1.7033 C.3     1  UNL1        0.0806
      9 C          62.6567   91.8451    2.6333 C.3     1  UNL1        0.0415
     10 C          62.0251   91.2824    3.8720 C.3     1  UNL1        0.0966
     11 H          61.7057   89.9637    6.1468 H       1  UNL1        0.1514
     12 N          62.4818   93.2650    0.4646 N.am    1  UNL1       -0.2613
     13 C          61.7260   93.2606   -0.8310 C.3     1  UNL1        0.1228
     14 C          62.3576   93.8234   -2.0697 C.ar    1  UNL1        0.0112
     15 C          61.6017   93.8191   -3.3653 C.ar    1  UNL1       -0.0014
     16 C          62.2333   94.3818   -4.6040 C.ar    1  UNL1       -0.0002
     17 C          63.6209   94.9489   -4.5471 C.ar    1  UNL1        0.0013
     18 C          64.3768   94.9532   -3.2515 C.ar    1  UNL1        0.0144
     19 C          63.7451   94.3905   -2.0128 C.ar    1  UNL1        0.0492
     20 N          64.5010   94.3948   -0.7172 N.am    1  UNL1       -0.2684
     21 C          63.8694   93.8320    0.5215 C.2     1  UNL1        0.3079
     22 O          64.6253   93.8364    1.8171 O.2     1  UNL1       -0.2522
     23 H          65.4117   94.7670   -0.6798 H       1  UNL1        0.1564
     24 C          59.7714   88.1391    7.6523 C.2     1  UNL1        0.2439
     25 O          58.5809   87.6262    6.8975 O.2     1  UNL1       -0.2731
     26 N          60.6029   87.1970    8.4714 N.am    1  UNL1       -0.2781
     27 C          60.2441   85.7420    8.5356 C.3     1  UNL1        0.0948
     28 C          61.0757   84.7999    9.3546 C.3     1  UNL1        0.0375
     29 C          62.2662   85.3128   10.1095 C.3     1  UNL1        0.0609
     30 C          62.6250   86.7678   10.0452 C.3     1  UNL1        0.0375
     31 C          61.7934   87.7099    9.2262 C.3     1  UNL1        0.0948
     32 N          63.0977   84.3707   10.9285 N.3     1  UNL1       -0.2738
     33 C          63.2543   84.5967   12.4031 C.3     1  UNL1        0.0720
     34 C          64.0859   83.6546   13.2221 C.3     1  UNL1        0.0174
     35 C          64.7610   82.4864   12.5666 C.3     1  UNL1        0.0029
     36 C          64.6044   82.2604   11.0920 C.3     1  UNL1        0.0174
     37 C          63.7728   83.2026   10.2729 C.3     1  UNL1        0.0720
     38 C          59.8574   90.4865    8.7626 C.3     1  UNL1        0.0554
     39 C          64.5047   91.7054   10.7419 C.3     1  UNL1        0.0288
     40 C          63.1330   91.1224   10.9111 C.2     1  UNL1       -0.0148
     41 C          62.1810   91.0960    9.7522 C.2     1  UNL1       -0.0104
     42 C          60.8094   90.5129    9.9215 C.2     1  UNL1       -0.0193
     43 C          60.3897   89.9563   11.2497 C.2     1  UNL1        0.0147
     44 C          61.3417   89.9828   12.4086 C.2     1  UNL1        0.1099
     45 N          61.2102   89.5115   13.8266 N.2     1  UNL1       -0.1311
     46 N          62.5005   89.8033   14.5336 N.2     1  UNL1       -0.0465
     47 N          63.4295   90.4549   13.5526 N.2     1  UNL1       -0.1469
     48 C          62.7133   90.5658   12.2393 C.3     1  UNL1        0.1865
@<TRIPOS>BOND
     1    39    40    1
     2    40    41    2
     3    41    42    1
     4    42    38    1
     5     1    38    1
     6     1     2    1
     7     2     3   am
     8     3     4    2
     9     3     5   am
    10     5     6    1
    11     6     7    1
    12     7     8    1
    13     8    12    1
    14    12    13    1
    15    13    14    1
    16    14    15   ar
    17    15    16   ar
    18    16    17   ar
    19    17    18   ar
    20    18    19   ar
    21    19    20    1
    22    20    21   am
    23    21    22    2
    24     8     9    1
    25     9    10    1
    26     1    24    1
    27    24    25    2
    28    24    26   am
    29    26    27    1
    30    27    28    1
    31    28    29    1
    32    29    32    1
    33    32    33    1
    34    33    34    1
    35    34    35    1
    36    35    36    1
    37    36    37    1
    38    29    30    1
    39    30    31    1
    40    42    43    2
    41    43    44    1
    42    44    45    2
    43    45    46    1
    44    46    47    2
    45    47    48    1
    46    48    40    1
    47    10     5    1
    48    31    26    1
    49    48    44    1
    50    21    12   am
    51    37    32    1
    52    19    14   ar
    53     2    11    1
    54    20    23    1
