@<TRIPOS>MOLECULE
*****
 22 26 0 0 0
SMALL
GASTEIGER

@<TRIPOS>ATOM
      1 O          62.2830   84.4584   11.2961 O.2     1  UNL1       -0.2699
      2 C          62.9113   85.4273   12.2535 C.2     1  UNL1        0.2505
      3 C          62.8007   86.8758   11.8799 C.ar    1  UNL1        0.0709
      4 C          62.0670   87.0978   10.5907 C.ar    1  UNL1        0.0060
      5 C          61.8676   88.4909   10.0715 C.ar    1  UNL1        0.0003
      6 C          62.4019   89.6619   10.8416 C.ar    1  UNL1        0.0031
      7 C          63.1356   89.4400   12.1309 C.ar    1  UNL1        0.0383
      8 C          63.7703   90.3915   13.1013 C.ar    1  UNL1        0.1216
      9 N          64.3619   89.5866   14.2202 N.ar    1  UNL1       -0.1677
     10 N          64.0930   88.1375   13.9414 N.ar    1  UNL1       -0.2490
     11 C          63.3350   88.0469   12.6501 C.ar    1  UNL1        0.0838
     12 C          64.5005   86.9789   14.7886 C.3     1  UNL1        0.1489
     13 C          64.2745   85.5100   14.5860 C.3     1  UNL1        0.1200
     14 N          63.5672   84.8194   13.4578 N.am    1  UNL1       -0.2742
     15 C          63.1804   82.1915   13.1256 C.3     1  UNL1        0.0917
     16 C          62.1634   81.8142   13.9398 C.3     1  UNL1        0.0921
     17 N          61.5517   81.5380   14.4169 N.3     1  UNL1       -0.2713
     18 C          62.2310   80.5232   13.5457 C.3     1  UNL1        0.0722
     19 C          63.3558   80.9406   12.6453 C.3     1  UNL1        0.0191
     20 C          63.8011   82.3726   12.6159 C.3     1  UNL1        0.0224
     21 C          63.1218   83.3874   13.4871 C.3     1  UNL1        0.0191
     22 C          61.9971   82.9700   14.3875 C.3     1  UNL1        0.0722
@<TRIPOS>BOND
     1     1     2    2
     2     2     3    1
     3     3     4   ar
     4     4     5   ar
     5     5     6   ar
     6     6     7   ar
     7     7     8   ar
     8     8     9   ar
     9     9    10   ar
    10    10    11   ar
    11    10    12    1
    12    12    13    1
    13    13    14    1
    14    15    14    1
    15    15    16    1
    16    16    17    1
    17    17    18    1
    18    18    19    1
    19    19    20    1
    20    20    21    1
    21    21    22    1
    22    14     2   am
    23    20    15    1
    24    11     3   ar
    25    22    17    1
    26    11     7   ar
@<TRIPOS>MOLECULE
*****
 22 26 0 0 0
SMALL
GASTEIGER

@<TRIPOS>ATOM
      1 O          63.4026   90.1670   12.4995 O.2     1  UNL1       -0.2699
      2 C          63.5184   88.7147   12.8566 C.2     1  UNL1        0.2505
      3 C          62.8970   87.7544   11.8863 C.ar    1  UNL1        0.0709
      4 C          62.2595   88.4338   10.7108 C.ar    1  UNL1        0.0060
      5 C          61.5915   87.6175    9.6443 C.ar    1  UNL1        0.0003
      6 C          61.5610   86.1218    9.7533 C.ar    1  UNL1        0.0031
      7 C          62.1985   85.4424   10.9288 C.ar    1  UNL1        0.0383
      8 C          62.3254   83.9958   11.3046 C.ar    1  UNL1        0.1216
      9 N          63.0719   83.9180   12.6034 N.ar    1  UNL1       -0.1677
     10 N          63.4063   85.3165   13.0303 N.ar    1  UNL1       -0.2490
     11 C          62.8665   86.2586   11.9953 C.ar    1  UNL1        0.0838
     12 C          64.1447   85.7167   14.2635 C.3     1  UNL1        0.1489
     13 C          64.5190   87.0806   14.7630 C.3     1  UNL1        0.1200
     14 N          64.2402   88.4149   14.1369 N.am    1  UNL1       -0.2742
     15 C          64.9231   90.8347   15.0557 C.3     1  UNL1        0.0917
     16 C          64.0428   91.1737   16.0302 C.3     1  UNL1        0.0921
     17 N          63.5334   91.4230   16.6272 N.3     1  UNL1       -0.2713
     18 C          64.6404   92.3646   16.2557 C.3     1  UNL1        0.0722
     19 C          65.6140   91.9896   15.1780 C.3     1  UNL1        0.0191
     20 C          65.4806   90.6731   14.4717 C.3     1  UNL1        0.0224
     21 C          64.3736   89.7315   14.8432 C.3     1  UNL1        0.0191
     22 C          63.4000   90.1065   15.9209 C.3     1  UNL1        0.0722
@<TRIPOS>BOND
     1     1     2    2
     2     2     3    1
     3     3     4   ar
     4     4     5   ar
     5     5     6   ar
     6     6     7   ar
     7     7     8   ar
     8     8     9   ar
     9     9    10   ar
    10    10    11   ar
    11    10    12    1
    12    12    13    1
    13    13    14    1
    14    15    14    1
    15    15    16    1
    16    16    17    1
    17    17    18    1
    18    18    19    1
    19    19    20    1
    20    20    21    1
    21    21    22    1
    22    14     2   am
    23    20    15    1
    24    11     3   ar
    25    22    17    1
    26    11     7   ar
@<TRIPOS>MOLECULE
*****
 22 26 0 0 0
SMALL
GASTEIGER

@<TRIPOS>ATOM
      1 O          63.1933   90.8193   10.0825 O.2     1  UNL1       -0.2699
      2 C          63.7788   90.8503   11.4632 C.2     1  UNL1        0.2505
      3 C          64.6890   92.0054   11.7584 C.ar    1  UNL1        0.0709
      4 C          64.8522   92.9394   10.5961 C.ar    1  UNL1        0.0060
      5 C          65.7306   94.1486   10.7233 C.ar    1  UNL1        0.0003
      6 C          66.4458   94.4238   12.0128 C.ar    1  UNL1        0.0031
      7 C          66.2825   93.4898   13.1751 C.ar    1  UNL1        0.0383
      8 C          66.8570   93.5018   14.5607 C.ar    1  UNL1        0.1216
      9 N          66.3336   92.2999   15.2899 N.ar    1  UNL1       -0.1677
     10 N          65.4357   91.5452   14.3550 N.ar    1  UNL1       -0.2490
     11 C          65.4041   92.2807   13.0479 C.ar    1  UNL1        0.0838
     12 C          64.6971   90.2844   14.6563 C.3     1  UNL1        0.1489
     13 C          63.7853   89.4701   13.7872 C.3     1  UNL1        0.1200
     14 N          63.3766   89.7219   12.3660 N.am    1  UNL1       -0.2742
     15 C          61.7449   88.2466   10.8407 C.3     1  UNL1        0.0917
     16 C          60.4896   88.7428   10.9729 C.3     1  UNL1        0.0921
     17 N          59.7116   89.0083   11.0213 N.3     1  UNL1       -0.2713
     18 C          59.9616   87.8283   10.1295 C.3     1  UNL1        0.0722
     19 C          61.3500   87.2796    9.9833 C.3     1  UNL1        0.0191
     20 C          62.4883   87.9107   10.7288 C.3     1  UNL1        0.0224
     21 C          62.2383   89.0907   11.6205 C.3     1  UNL1        0.0191
     22 C          60.8499   89.6394   11.7668 C.3     1  UNL1        0.0722
@<TRIPOS>BOND
     1     1     2    2
     2     2     3    1
     3     3     4   ar
     4     4     5   ar
     5     5     6   ar
     6     6     7   ar
     7     7     8   ar
     8     8     9   ar
     9     9    10   ar
    10    10    11   ar
    11    10    12    1
    12    12    13    1
    13    13    14    1
    14    15    14    1
    15    15    16    1
    16    16    17    1
    17    17    18    1
    18    18    19    1
    19    19    20    1
    20    20    21    1
    21    21    22    1
    22    14     2   am
    23    20    15    1
    24    11     3   ar
    25    22    17    1
    26    11     7   ar
@<TRIPOS>MOLECULE
*****
 22 26 0 0 0
SMALL
GASTEIGER

@<TRIPOS>ATOM
      1 O          64.2204   92.0053   12.8288 O.2     1  UNL1       -0.2699
      2 C          64.0344   90.5267   13.0005 C.2     1  UNL1        0.2505
      3 C          63.1767   89.8546   11.9697 C.ar    1  UNL1        0.0709
      4 C          62.6496   90.8016   10.9328 C.ar    1  UNL1        0.0060
      5 C          61.7734   90.2915    9.8273 C.ar    1  UNL1        0.0003
      6 C          61.4243   88.8343    9.7588 C.ar    1  UNL1        0.0031
      7 C          61.9514   87.8872   10.7957 C.ar    1  UNL1        0.0383
      8 C          61.7784   86.4094   10.9858 C.ar    1  UNL1        0.1216
      9 N          62.5477   86.0062   12.2088 N.ar    1  UNL1       -0.1677
     10 N          63.1962   87.2348   12.7745 N.ar    1  UNL1       -0.2490
     11 C          62.8276   88.3974   11.9011 C.ar    1  UNL1        0.0838
     12 C          64.0582   87.3050   13.9902 C.3     1  UNL1        0.1489
     13 C          64.7413   88.4821   14.6208 C.3     1  UNL1        0.1200
     14 N          64.7307   89.9160   14.1804 N.am    1  UNL1       -0.2742
     15 C          65.9624   91.9961   15.3301 C.3     1  UNL1        0.0917
     16 C          67.0759   92.2723   14.6068 C.3     1  UNL1        0.0921
     17 N          67.7618   92.4777   14.1999 N.3     1  UNL1       -0.2713
     18 C          67.4300   93.3002   15.4097 C.3     1  UNL1        0.0722
     19 C          66.1984   92.9945   16.2096 C.3     1  UNL1        0.0191
     20 C          65.2987   91.8665   15.7999 C.3     1  UNL1        0.0224
     21 C          65.6305   91.0440   14.5901 C.3     1  UNL1        0.0191
     22 C          66.8620   91.3496   13.7902 C.3     1  UNL1        0.0722
@<TRIPOS>BOND
     1     1     2    2
     2     2     3    1
     3     3     4   ar
     4     4     5   ar
     5     5     6   ar
     6     6     7   ar
     7     7     8   ar
     8     8     9   ar
     9     9    10   ar
    10    10    11   ar
    11    10    12    1
    12    12    13    1
    13    13    14    1
    14    15    14    1
    15    15    16    1
    16    16    17    1
    17    17    18    1
    18    18    19    1
    19    19    20    1
    20    20    21    1
    21    21    22    1
    22    14     2   am
    23    20    15    1
    24    11     3   ar
    25    22    17    1
    26    11     7   ar
@<TRIPOS>MOLECULE
*****
 22 26 0 0 0
SMALL
GASTEIGER

@<TRIPOS>ATOM
      1 O          63.4154   87.9854   12.6135 O.2     1  UNL1       -0.2699
      2 C          63.5576   86.7523   13.4558 C.2     1  UNL1        0.2505
      3 C          63.2482   85.4554   12.7685 C.ar    1  UNL1        0.0709
      4 C          62.8445   85.6298   11.3345 C.ar    1  UNL1        0.0060
      5 C          62.5007   84.4310   10.5010 C.ar    1  UNL1        0.0003
      6 C          62.5606   83.0579   11.1017 C.ar    1  UNL1        0.0031
      7 C          62.9643   82.8835   12.5357 C.ar    1  UNL1        0.0383
      8 C          63.1126   81.6633   13.3954 C.ar    1  UNL1        0.1216
      9 N          63.5481   82.1080   14.7602 N.ar    1  UNL1       -0.1677
     10 N          63.6689   83.6030   14.7440 N.ar    1  UNL1       -0.2490
     11 C          63.3081   84.0823   13.3692 C.ar    1  UNL1        0.0838
     12 C          64.0749   84.4742   15.8852 C.3     1  UNL1        0.1489
     13 C          64.2206   85.9654   15.9552 C.3     1  UNL1        0.1200
     14 N          63.9903   86.9794   14.8740 N.am    1  UNL1       -0.2742
     15 C          64.2596   89.6380   15.0318 C.3     1  UNL1        0.0917
     16 C          63.5541   90.0647   16.1087 C.3     1  UNL1        0.0921
     17 N          63.1404   90.3709   16.7514 N.3     1  UNL1       -0.2713
     18 C          63.8858   91.3587   15.9037 C.3     1  UNL1        0.0722
     19 C          64.6660   90.8867   14.7127 C.3     1  UNL1        0.0191
     20 C          64.7009   89.4269   14.3695 C.3     1  UNL1        0.0224
     21 C          63.9555   88.4391   15.2172 C.3     1  UNL1        0.0191
     22 C          63.1752   88.9112   16.4082 C.3     1  UNL1        0.0722
@<TRIPOS>BOND
     1     1     2    2
     2     2     3    1
     3     3     4   ar
     4     4     5   ar
     5     5     6   ar
     6     6     7   ar
     7     7     8   ar
     8     8     9   ar
     9     9    10   ar
    10    10    11   ar
    11    10    12    1
    12    12    13    1
    13    13    14    1
    14    15    14    1
    15    15    16    1
    16    16    17    1
    17    17    18    1
    18    18    19    1
    19    19    20    1
    20    20    21    1
    21    21    22    1
    22    14     2   am
    23    20    15    1
    24    11     3   ar
    25    22    17    1
    26    11     7   ar
@<TRIPOS>MOLECULE
*****
 22 26 0 0 0
SMALL
GASTEIGER

@<TRIPOS>ATOM
      1 O          62.1859   90.0426    9.3163 O.2     1  UNL1       -0.2699
      2 C          62.7839   89.7899   10.6686 C.2     1  UNL1        0.2505
      3 C          63.7111   90.8528   11.1792 C.ar    1  UNL1        0.0709
      4 C          63.8758   91.9991   10.2259 C.ar    1  UNL1        0.0060
      5 C          64.7704   93.1489   10.5830 C.ar    1  UNL1        0.0003
      6 C          65.5003   93.1524   11.8934 C.ar    1  UNL1        0.0031
      7 C          65.3357   92.0061   12.8467 C.ar    1  UNL1        0.0383
      8 C          65.9225   91.7338   14.2000 C.ar    1  UNL1        0.1216
      9 N          65.3905   90.4157   14.6793 N.ar    1  UNL1       -0.1677
     10 N          64.4750   89.8733   13.6222 N.ar    1  UNL1       -0.2490
     11 C          64.4411   90.8563   12.4896 C.ar    1  UNL1        0.0838
     12 C          63.7233   88.5855   13.6730 C.3     1  UNL1        0.1489
     13 C          62.7937   87.9717   12.6686 C.3     1  UNL1        0.1200
     14 N          62.3756   88.5077   11.3314 N.am    1  UNL1       -0.2742
     15 C          60.7120   87.3855    9.5597 C.3     1  UNL1        0.0917
     16 C          61.4167   86.4706    8.8485 C.3     1  UNL1        0.0921
     17 N          61.8023   85.9049    8.3909 N.3     1  UNL1       -0.2713
     18 C          60.3466   86.1213    8.1006 C.3     1  UNL1        0.0722
     19 C          59.5674   87.1332    8.8872 C.3     1  UNL1        0.0191
     20 C          60.2437   87.9287    9.9641 C.3     1  UNL1        0.0224
     21 C          61.6993   87.7122   10.2544 C.3     1  UNL1        0.0191
     22 C          62.4786   86.7003    9.4678 C.3     1  UNL1        0.0722
@<TRIPOS>BOND
     1     1     2    2
     2     2     3    1
     3     3     4   ar
     4     4     5   ar
     5     5     6   ar
     6     6     7   ar
     7     7     8   ar
     8     8     9   ar
     9     9    10   ar
    10    10    11   ar
    11    10    12    1
    12    12    13    1
    13    13    14    1
    14    15    14    1
    15    15    16    1
    16    16    17    1
    17    17    18    1
    18    18    19    1
    19    19    20    1
    20    20    21    1
    21    21    22    1
    22    14     2   am
    23    20    15    1
    24    11     3   ar
    25    22    17    1
    26    11     7   ar
