@<TRIPOS>MOLECULE
*****
 47 52 0 0 0
SMALL
GASTEIGER

@<TRIPOS>ATOM
      1 C          66.2235   93.0395   12.9677 C.ar    1  UNL1        0.0830
      2 C          67.1714   92.8553   14.1155 C.ar    1  UNL1        0.0208
      3 C          67.0822   91.6272   14.9721 C.ar    1  UNL1        0.0238
      4 C          66.0451   90.5833   14.6809 C.ar    1  UNL1        0.1173
      5 N          65.7196   89.2788   15.3461 N.ar    1  UNL1       -0.2248
      6 C          64.5705   88.6569   14.6094 C.ar    1  UNL1        0.1515
      7 N          64.1859   89.5770   13.4888 N.ar    1  UNL1       -0.2754
      8 C          65.0972   90.7676   13.5331 C.ar    1  UNL1        0.1665
      9 N          65.1864   91.9957   12.6765 N.ar    1  UNL1       -0.2264
     10 C          63.9202   87.3451   14.9358 C.ar    1  UNL1        0.0657
     11 C          64.0096   86.2024   13.9682 C.ar    1  UNL1        0.0074
     12 C          63.3593   84.8908   14.2947 C.ar    1  UNL1        0.0209
     13 C          62.6196   84.7218   15.5887 C.ar    1  UNL1        0.1003
     14 N          62.5303   85.8645   16.5562 N.ar    1  UNL1       -0.2295
     15 C          63.1806   87.1762   16.2298 C.ar    1  UNL1        0.1282
     16 N          63.0913   88.3190   17.1973 N.pl3   1  UNL1       -0.3425
     17 H          62.6058   88.2081   18.0466 H       1  UNL1        0.1437
     18 H          63.5181   89.1799   16.9831 H       1  UNL1        0.1437
     19 C          66.5421   95.3639    9.7668 C.ar    1  UNL1        0.0503
     20 C          66.4910   96.7238   10.3977 C.ar    1  UNL1        0.0147
     21 C          66.3507   96.8557   11.8853 C.ar    1  UNL1        0.0013
     22 C          66.2616   95.6275   12.7420 C.ar    1  UNL1        0.0016
     23 C          66.3127   94.2677   12.1110 C.ar    1  UNL1        0.0189
     24 C          66.4529   94.1358   10.6234 C.ar    1  UNL1        0.0162
     25 C          65.8877   95.8405    5.8816 C.3     1  UNL1        0.0949
     26 C          65.7474   95.9723    7.3692 C.2     1  UNL1        0.2266
     27 O          64.6723   96.8442    7.9468 O.2     1  UNL1       -0.2748
     28 N          66.6824   95.2321    8.2792 N.am    1  UNL1       -0.2839
     29 H          67.3881   94.6598    7.9001 H       1  UNL1        0.1549
     30 C          63.0834   89.3469   12.4980 C.ar    1  UNL1        0.0667
     31 C          63.1475   88.1755   11.5633 C.ar    1  UNL1        0.0173
     32 C          62.0451   87.9454   10.5725 C.ar    1  UNL1       -0.0011
     33 C          60.8786   88.8866   10.5164 C.ar    1  UNL1       -0.0025
     34 C          60.8144   90.0580   11.4512 C.ar    1  UNL1       -0.0011
     35 C          61.9169   90.2881   12.4419 C.ar    1  UNL1        0.0173
     36 C          59.7761   88.6565    9.5256 C.3     1  UNL1        0.1166
     37 N          59.5157   89.6646    8.4458 N.am    1  UNL1       -0.2969
     38 C          59.3723   89.2176    7.0212 C.2     1  UNL1        0.2462
     39 O          59.4894   87.7625    6.6763 O.2     1  UNL1       -0.2701
     40 H          59.4389   90.6197    8.6721 H       1  UNL1        0.1501
     41 C          59.1119   90.2257    5.9414 C.ar    1  UNL1        0.0556
     42 C          57.7072   90.6594    5.6433 C.ar    1  UNL1        0.0047
     43 C          57.4468   91.6675    4.5635 C.ar    1  UNL1        0.0025
     44 C          58.5909   92.2418    3.7818 C.ar    1  UNL1        0.0296
     45 C          59.9955   91.8080    4.0798 C.ar    1  UNL1        0.1403
     46 F          61.1397   92.3823    3.2981 F       1  UNL1       -0.2042
     47 C          60.2561   90.7999    5.1596 C.ar    1  UNL1        0.0341
@<TRIPOS>BOND
     1    25    26    1
     2    26    27    2
     3    26    28   am
     4    28    19    1
     5    19    20   ar
     6    20    21   ar
     7    21    22   ar
     8    22    23   ar
     9    23     1    1
    10     1     2   ar
    11     2     3   ar
    12     3     4   ar
    13     4     5   ar
    14     5     6   ar
    15     6    10    1
    16    10    11   ar
    17    11    12   ar
    18    12    13   ar
    19    13    14   ar
    20    14    15   ar
    21    15    16    1
    22     6     7   ar
    23     7    30    1
    24    30    31   ar
    25    31    32   ar
    26    32    33   ar
    27    33    36    1
    28    36    37    1
    29    37    38   am
    30    38    39    2
    31    38    41    1
    32    41    42   ar
    33    42    43   ar
    34    43    44   ar
    35    44    45   ar
    36    45    46    1
    37    45    47   ar
    38    33    34   ar
    39    34    35   ar
    40     7     8   ar
    41     8     9   ar
    42    23    24   ar
    43    24    19   ar
    44     9     1   ar
    45     8     4   ar
    46    15    10   ar
    47    35    30   ar
    48    47    41   ar
    49    28    29    1
    50    16    17    1
    51    16    18    1
    52    37    40    1
@<TRIPOS>MOLECULE
*****
 47 52 0 0 0
SMALL
GASTEIGER

@<TRIPOS>ATOM
      1 C          62.0775   89.9814    9.7754 C.ar    1  UNL1        0.0830
      2 C          62.5331   91.2683    9.1538 C.ar    1  UNL1        0.0208
      3 C          63.5112   92.1456    9.8774 C.ar    1  UNL1        0.0238
      4 C          64.0336   91.7362   11.2226 C.ar    1  UNL1        0.1173
      5 N          64.9983   92.3909   12.1664 N.ar    1  UNL1       -0.2248
      6 C          65.1388   91.5086   13.3713 C.ar    1  UNL1        0.1515
      7 N          64.2610   90.3087   13.1722 N.ar    1  UNL1       -0.2754
      8 C          63.5779   90.4494   11.8442 C.ar    1  UNL1        0.1665
      9 N          62.5999   89.5720   11.1206 N.ar    1  UNL1       -0.2264
     10 C          66.0051   91.7788   14.5658 C.ar    1  UNL1        0.0657
     11 C          65.3782   92.0439   15.9024 C.ar    1  UNL1        0.0074
     12 C          66.2445   92.3140   17.0967 C.ar    1  UNL1        0.0209
     13 C          67.7377   92.3191   16.9545 C.ar    1  UNL1        0.1003
     14 N          68.3646   92.0540   15.6178 N.ar    1  UNL1       -0.2295
     15 C          67.4984   91.7839   14.4235 C.ar    1  UNL1        0.1282
     16 N          68.1253   91.5188   13.0867 N.pl3   1  UNL1       -0.3425
     17 H          69.1053   91.5222   12.9933 H       1  UNL1        0.1437
     18 H          67.5567   91.3415   12.3028 H       1  UNL1        0.1437
     19 C          59.0699   88.8396    7.4515 C.ar    1  UNL1        0.0503
     20 C          59.1432   87.3491    7.6047 C.ar    1  UNL1        0.0147
     21 C          60.1947   86.7362    8.4815 C.ar    1  UNL1        0.0013
     22 C          61.1728   87.6137    9.2051 C.ar    1  UNL1        0.0016
     23 C          61.0994   89.1040    9.0519 C.ar    1  UNL1        0.0189
     24 C          60.0479   89.7169    8.1751 C.ar    1  UNL1        0.0162
     25 C          57.3333   91.1623    4.7424 C.3     1  UNL1        0.0949
     26 C          58.3847   90.5493    5.6192 C.2     1  UNL1        0.2266
     27 O          59.8023   91.0332    5.5405 O.2     1  UNL1       -0.2748
     28 N          58.0184   89.4525    6.5747 N.am    1  UNL1       -0.2839
     29 H          57.0880   89.1349    6.6263 H       1  UNL1        0.1549
     30 C          64.0953   89.1684   14.1324 C.ar    1  UNL1        0.0667
     31 C          63.3818   89.3819   15.4344 C.ar    1  UNL1        0.0173
     32 C          63.2161   88.2415   16.3947 C.ar    1  UNL1       -0.0011
     33 C          63.7639   86.8876   16.0530 C.ar    1  UNL1       -0.0025
     34 C          64.4774   86.6741   14.7510 C.ar    1  UNL1       -0.0011
     35 C          64.6431   87.8145   13.7907 C.ar    1  UNL1        0.0173
     36 C          63.5982   85.7472   17.0132 C.3     1  UNL1        0.1166
     37 N          63.4521   84.3467   16.4964 N.am    1  UNL1       -0.2969
     38 C          62.7500   84.0971   15.1945 C.2     1  UNL1        0.2462
     39 O          62.1941   85.2481   14.4095 O.2     1  UNL1       -0.2701
     40 H          63.8170   83.5913   17.0116 H       1  UNL1        0.1501
     41 C          62.6039   82.6966   14.6777 C.ar    1  UNL1        0.0556
     42 C          63.8068   81.9520   14.1789 C.ar    1  UNL1        0.0047
     43 C          63.6607   80.5514   13.6620 C.ar    1  UNL1        0.0025
     44 C          62.3119   79.8955   13.6439 C.ar    1  UNL1        0.0296
     45 C          61.1090   80.6401   14.1426 C.ar    1  UNL1        0.1403
     46 F          59.7602   79.9842   14.1245 F       1  UNL1       -0.2042
     47 C          61.2551   82.0407   14.6595 C.ar    1  UNL1        0.0341
@<TRIPOS>BOND
     1    25    26    1
     2    26    27    2
     3    26    28   am
     4    28    19    1
     5    19    20   ar
     6    20    21   ar
     7    21    22   ar
     8    22    23   ar
     9    23     1    1
    10     1     2   ar
    11     2     3   ar
    12     3     4   ar
    13     4     5   ar
    14     5     6   ar
    15     6    10    1
    16    10    11   ar
    17    11    12   ar
    18    12    13   ar
    19    13    14   ar
    20    14    15   ar
    21    15    16    1
    22     6     7   ar
    23     7    30    1
    24    30    31   ar
    25    31    32   ar
    26    32    33   ar
    27    33    36    1
    28    36    37    1
    29    37    38   am
    30    38    39    2
    31    38    41    1
    32    41    42   ar
    33    42    43   ar
    34    43    44   ar
    35    44    45   ar
    36    45    46    1
    37    45    47   ar
    38    33    34   ar
    39    34    35   ar
    40     7     8   ar
    41     8     9   ar
    42    23    24   ar
    43    24    19   ar
    44     9     1   ar
    45     8     4   ar
    46    15    10   ar
    47    35    30   ar
    48    47    41   ar
    49    28    29    1
    50    16    17    1
    51    16    18    1
    52    37    40    1
@<TRIPOS>MOLECULE
*****
 47 52 0 0 0
SMALL
GASTEIGER

@<TRIPOS>ATOM
      1 C          62.9388   83.8180   14.0319 C.ar    1  UNL1        0.0830
      2 C          63.9015   84.0215   15.1640 C.ar    1  UNL1        0.0208
      3 C          64.5467   85.3601   15.3684 C.ar    1  UNL1        0.0238
      4 C          64.2293   86.4952   14.4406 C.ar    1  UNL1        0.1173
      5 N          64.7068   87.9164   14.3932 N.ar    1  UNL1       -0.2248
      6 C          64.0392   88.5912   13.2318 C.ar    1  UNL1        0.1515
      7 N          63.1491   87.5871   12.5614 N.ar    1  UNL1       -0.2754
      8 C          63.2666   86.2917   13.3084 C.ar    1  UNL1        0.1665
      9 N          62.6213   84.9531   13.1041 N.ar    1  UNL1       -0.2264
     10 C          64.2285   90.0195   12.8141 C.ar    1  UNL1        0.0657
     11 C          63.9516   90.4297   11.3982 C.ar    1  UNL1        0.0074
     12 C          64.1409   91.8579   10.9805 C.ar    1  UNL1        0.0209
     13 C          64.6070   92.8758   11.9788 C.ar    1  UNL1        0.1003
     14 N          64.8839   92.4655   13.3948 N.ar    1  UNL1       -0.2295
     15 C          64.6947   91.0373   13.8124 C.ar    1  UNL1        0.1282
     16 N          64.9716   90.6270   15.2284 N.pl3   1  UNL1       -0.3425
     17 H          65.2775   91.2950   15.8837 H       1  UNL1        0.1437
     18 H          64.8473   89.6896   15.5025 H       1  UNL1        0.1437
     19 C          62.2357   80.1665   12.6455 C.ar    1  UNL1        0.0503
     20 C          61.0029   79.8022   13.4187 C.ar    1  UNL1        0.0147
     21 C          60.4155   80.7765   14.3962 C.ar    1  UNL1        0.0013
     22 C          61.0608   82.1151   14.6006 C.ar    1  UNL1        0.0016
     23 C          62.2935   82.4794   13.8275 C.ar    1  UNL1        0.0189
     24 C          62.8809   81.5050   12.8499 C.ar    1  UNL1        0.0162
     25 C          63.6321   78.6274    9.2645 C.3     1  UNL1        0.0949
     26 C          63.0446   79.6017   10.2420 C.2     1  UNL1        0.2266
     27 O          62.6786   80.9855    9.7937 O.2     1  UNL1       -0.2748
     28 N          62.8231   79.1921   11.6680 N.am    1  UNL1       -0.2839
     29 H          63.0634   78.2839   11.9623 H       1  UNL1        0.1549
     30 C          62.2920   87.8349   11.3556 C.ar    1  UNL1        0.0667
     31 C          62.4512   86.9795   10.1337 C.ar    1  UNL1        0.0173
     32 C          61.5942   87.2273    8.9279 C.ar    1  UNL1       -0.0011
     33 C          60.5779   88.3304    8.9439 C.ar    1  UNL1       -0.0025
     34 C          60.4187   89.1857   10.1658 C.ar    1  UNL1       -0.0011
     35 C          61.2757   88.9379   11.3716 C.ar    1  UNL1        0.0173
     36 C          59.7208   88.5781    7.7381 C.3     1  UNL1        0.1166
     37 N          60.2360   89.4261    6.6131 N.am    1  UNL1       -0.2969
     38 C          59.3028   90.3379    5.8730 C.2     1  UNL1        0.2462
     39 O          57.8545   90.4018    6.2579 O.2     1  UNL1       -0.2701
     40 H          61.1866   89.3841    6.3605 H       1  UNL1        0.1501
     41 C          59.8180   91.1859    4.7480 C.ar    1  UNL1        0.0556
     42 C          58.8707   92.0383    3.9567 C.ar    1  UNL1        0.0047
     43 C          59.3859   92.8862    2.8318 C.ar    1  UNL1        0.0025
     44 C          60.8483   92.8818    2.4981 C.ar    1  UNL1        0.0296
     45 C          61.7956   92.0294    3.2893 C.ar    1  UNL1        0.1403
     46 F          63.2580   92.0249    2.9556 F       1  UNL1       -0.2042
     47 C          61.2804   91.1814    4.4143 C.ar    1  UNL1        0.0341
@<TRIPOS>BOND
     1    25    26    1
     2    26    27    2
     3    26    28   am
     4    28    19    1
     5    19    20   ar
     6    20    21   ar
     7    21    22   ar
     8    22    23   ar
     9    23     1    1
    10     1     2   ar
    11     2     3   ar
    12     3     4   ar
    13     4     5   ar
    14     5     6   ar
    15     6    10    1
    16    10    11   ar
    17    11    12   ar
    18    12    13   ar
    19    13    14   ar
    20    14    15   ar
    21    15    16    1
    22     6     7   ar
    23     7    30    1
    24    30    31   ar
    25    31    32   ar
    26    32    33   ar
    27    33    36    1
    28    36    37    1
    29    37    38   am
    30    38    39    2
    31    38    41    1
    32    41    42   ar
    33    42    43   ar
    34    43    44   ar
    35    44    45   ar
    36    45    46    1
    37    45    47   ar
    38    33    34   ar
    39    34    35   ar
    40     7     8   ar
    41     8     9   ar
    42    23    24   ar
    43    24    19   ar
    44     9     1   ar
    45     8     4   ar
    46    15    10   ar
    47    35    30   ar
    48    47    41   ar
    49    28    29    1
    50    16    17    1
    51    16    18    1
    52    37    40    1
@<TRIPOS>MOLECULE
*****
 47 52 0 0 0
SMALL
GASTEIGER

@<TRIPOS>ATOM
      1 C          64.5435   88.3613   14.0935 C.ar    1  UNL1        0.0830
      2 C          65.1330   87.7300   15.3198 C.ar    1  UNL1        0.0208
      3 C          65.0727   86.2422   15.5001 C.ar    1  UNL1        0.0238
      4 C          64.4229   85.3856   14.4541 C.ar    1  UNL1        0.1173
      5 N          64.2152   83.9031   14.3578 N.ar    1  UNL1       -0.2248
      6 C          63.4973   83.6183   13.0719 C.ar    1  UNL1        0.1515
      7 N          63.2613   84.9247   12.3736 N.ar    1  UNL1       -0.2754
      8 C          63.8334   86.0169   13.2278 C.ar    1  UNL1        0.1665
      9 N          63.8937   87.5048   13.0475 N.ar    1  UNL1       -0.2264
     10 C          63.0873   82.2647   12.5721 C.ar    1  UNL1        0.0657
     11 C          63.3769   81.8693   11.1544 C.ar    1  UNL1        0.0074
     12 C          62.9669   80.5158   10.6547 C.ar    1  UNL1        0.0209
     13 C          62.2674   79.5576   11.5726 C.ar    1  UNL1        0.1003
     14 N          61.9778   79.9530   12.9902 N.ar    1  UNL1       -0.2295
     15 C          62.3878   81.3065   13.4900 C.ar    1  UNL1        0.1282
     16 N          62.0983   81.7019   14.9077 N.pl3   1  UNL1       -0.3425
     17 H          61.6392   81.0730   15.5102 H       1  UNL1        0.1437
     18 H          62.3674   82.5903   15.2357 H       1  UNL1        0.1437
     19 C          65.5370   92.1663   14.6275 C.ar    1  UNL1        0.0503
     20 C          64.7243   92.8251   13.5524 C.ar    1  UNL1        0.0147
     21 C          63.8513   91.9959   12.6578 C.ar    1  UNL1        0.0013
     22 C          63.7911   90.5080   12.8381 C.ar    1  UNL1        0.0016
     23 C          64.6037   89.8493   13.9131 C.ar    1  UNL1        0.0189
     24 C          65.4767   90.6785   14.8078 C.ar    1  UNL1        0.0162
     25 C          68.7441   93.9723   16.1117 C.3     1  UNL1        0.0949
     26 C          67.8712   93.1431   15.2170 C.2     1  UNL1        0.2266
     27 O          68.4594   92.4615   14.0173 O.2     1  UNL1       -0.2748
     28 N          66.4099   92.9955   15.5221 N.am    1  UNL1       -0.2839
     29 H          66.0238   93.4429   16.3096 H       1  UNL1        0.1549
     30 C          62.5740   85.1069   11.0528 C.ar    1  UNL1        0.0667
     31 C          61.2931   85.8836   10.9748 C.ar    1  UNL1        0.0173
     32 C          60.6057   86.0657    9.6541 C.ar    1  UNL1       -0.0011
     33 C          61.1992   85.4713    8.4114 C.ar    1  UNL1       -0.0025
     34 C          62.4801   84.6946    8.4894 C.ar    1  UNL1       -0.0011
     35 C          63.1674   84.5124    9.8101 C.ar    1  UNL1        0.0173
     36 C          60.5118   85.6535    7.0906 C.3     1  UNL1        0.1166
     37 N          60.4560   87.0111    6.4551 N.am    1  UNL1       -0.2969
     38 C          59.3423   87.9551    6.7992 C.2     1  UNL1        0.2462
     39 O          58.2843   87.5415    7.7789 O.2     1  UNL1       -0.2701
     40 H          61.1504   87.2825    5.8122 H       1  UNL1        0.1501
     41 C          59.2865   89.3127    6.1637 C.ar    1  UNL1        0.0556
     42 C          60.5531   89.9933    5.7364 C.ar    1  UNL1        0.0047
     43 C          60.4974   91.3508    5.1008 C.ar    1  UNL1        0.0025
     44 C          59.1751   92.0278    4.8927 C.ar    1  UNL1        0.0296
     45 C          57.9086   91.3472    5.3200 C.ar    1  UNL1        0.1403
     46 F          56.5863   92.0241    5.1119 F       1  UNL1       -0.2042
     47 C          57.9642   89.9896    5.9556 C.ar    1  UNL1        0.0341
@<TRIPOS>BOND
     1    25    26    1
     2    26    27    2
     3    26    28   am
     4    28    19    1
     5    19    20   ar
     6    20    21   ar
     7    21    22   ar
     8    22    23   ar
     9    23     1    1
    10     1     2   ar
    11     2     3   ar
    12     3     4   ar
    13     4     5   ar
    14     5     6   ar
    15     6    10    1
    16    10    11   ar
    17    11    12   ar
    18    12    13   ar
    19    13    14   ar
    20    14    15   ar
    21    15    16    1
    22     6     7   ar
    23     7    30    1
    24    30    31   ar
    25    31    32   ar
    26    32    33   ar
    27    33    36    1
    28    36    37    1
    29    37    38   am
    30    38    39    2
    31    38    41    1
    32    41    42   ar
    33    42    43   ar
    34    43    44   ar
    35    44    45   ar
    36    45    46    1
    37    45    47   ar
    38    33    34   ar
    39    34    35   ar
    40     7     8   ar
    41     8     9   ar
    42    23    24   ar
    43    24    19   ar
    44     9     1   ar
    45     8     4   ar
    46    15    10   ar
    47    35    30   ar
    48    47    41   ar
    49    28    29    1
    50    16    17    1
    51    16    18    1
    52    37    40    1
@<TRIPOS>MOLECULE
*****
 47 52 0 0 0
SMALL
GASTEIGER

@<TRIPOS>ATOM
      1 C          64.4909   87.7201   14.7870 C.ar    1  UNL1        0.0830
      2 C          65.3031   86.8558   15.7053 C.ar    1  UNL1        0.0208
      3 C          65.4112   85.3821   15.4476 C.ar    1  UNL1        0.0238
      4 C          64.7070   84.7727   14.2717 C.ar    1  UNL1        0.1173
      5 N          64.6307   83.3616   13.7684 N.ar    1  UNL1       -0.2248
      6 C          63.7713   83.3539   12.5390 C.ar    1  UNL1        0.1515
      7 N          63.3165   84.7602   12.2826 N.ar    1  UNL1       -0.2754
      8 C          63.8948   85.6369   13.3535 C.ar    1  UNL1        0.1665
      9 N          63.7868   87.1107   13.6111 N.ar    1  UNL1       -0.2264
     10 C          63.4272   82.1512   11.7113 C.ar    1  UNL1        0.0657
     11 C          63.7914   82.1126   10.2567 C.ar    1  UNL1        0.0074
     12 C          63.4472   80.9099    9.4291 C.ar    1  UNL1        0.0209
     13 C          62.7388   79.7458   10.0561 C.ar    1  UNL1        0.1003
     14 N          62.3745   79.7844   11.5106 N.ar    1  UNL1       -0.2295
     15 C          62.7187   80.9871   12.3382 C.ar    1  UNL1        0.1282
     16 N          62.3545   81.0258   13.7929 N.pl3   1  UNL1       -0.3425
     17 H          61.8895   80.2618   14.2044 H       1  UNL1        0.1437
     18 H          62.5804   81.8152   14.3361 H       1  UNL1        0.1437
     19 C          65.0405   91.6360   14.4503 C.ar    1  UNL1        0.0503
     20 C          64.1667   92.1414   15.5598 C.ar    1  UNL1        0.0147
     21 C          63.4010   91.1730   16.4118 C.ar    1  UNL1        0.0013
     22 C          63.5091   89.6992   16.1542 C.ar    1  UNL1        0.0016
     23 C          64.3828   89.1939   15.0447 C.ar    1  UNL1        0.0189
     24 C          65.1486   90.1623   14.1927 C.ar    1  UNL1        0.0162
     25 C          66.2659   93.6887   11.2824 C.3     1  UNL1        0.0949
     26 C          65.5002   92.7202   12.1344 C.2     1  UNL1        0.2266
     27 O          64.4284   91.8677   11.5225 O.2     1  UNL1       -0.2748
     28 N          65.8062   92.6044   13.5983 N.am    1  UNL1       -0.2839
     29 H          66.5097   93.1640   13.9999 H       1  UNL1        0.1549
     30 C          62.4377   85.2105   11.1535 C.ar    1  UNL1        0.0667
     31 C          61.2605   86.0988   11.4277 C.ar    1  UNL1        0.0173
     32 C          60.3817   86.5491   10.2986 C.ar    1  UNL1       -0.0011
     33 C          60.6800   86.1114    8.8954 C.ar    1  UNL1       -0.0025
     34 C          61.8572   85.2231    8.6211 C.ar    1  UNL1       -0.0011
     35 C          62.7361   84.7728    9.7502 C.ar    1  UNL1        0.0173
     36 C          59.8012   86.5617    7.7663 C.3     1  UNL1        0.1166
     37 N          60.1676   87.7792    6.9703 N.am    1  UNL1       -0.2969
     38 C          59.1164   88.7901    6.6193 C.2     1  UNL1        0.2462
     39 O          57.6989   88.5834    7.0641 O.2     1  UNL1       -0.2701
     40 H          61.0979   87.9148    6.6784 H       1  UNL1        0.1501
     41 C          59.4828   90.0076    5.8233 C.ar    1  UNL1        0.0556
     42 C          58.4620   91.0793    5.5796 C.ar    1  UNL1        0.0047
     43 C          58.8284   92.2968    4.7836 C.ar    1  UNL1        0.0025
     44 C          60.2154   92.4425    4.2315 C.ar    1  UNL1        0.0296
     45 C          61.2361   91.3708    4.4752 C.ar    1  UNL1        0.1403
     46 F          62.6232   91.5165    3.9231 F       1  UNL1       -0.2042
     47 C          60.8698   90.1532    5.2712 C.ar    1  UNL1        0.0341
@<TRIPOS>BOND
     1    25    26    1
     2    26    27    2
     3    26    28   am
     4    28    19    1
     5    19    20   ar
     6    20    21   ar
     7    21    22   ar
     8    22    23   ar
     9    23     1    1
    10     1     2   ar
    11     2     3   ar
    12     3     4   ar
    13     4     5   ar
    14     5     6   ar
    15     6    10    1
    16    10    11   ar
    17    11    12   ar
    18    12    13   ar
    19    13    14   ar
    20    14    15   ar
    21    15    16    1
    22     6     7   ar
    23     7    30    1
    24    30    31   ar
    25    31    32   ar
    26    32    33   ar
    27    33    36    1
    28    36    37    1
    29    37    38   am
    30    38    39    2
    31    38    41    1
    32    41    42   ar
    33    42    43   ar
    34    43    44   ar
    35    44    45   ar
    36    45    46    1
    37    45    47   ar
    38    33    34   ar
    39    34    35   ar
    40     7     8   ar
    41     8     9   ar
    42    23    24   ar
    43    24    19   ar
    44     9     1   ar
    45     8     4   ar
    46    15    10   ar
    47    35    30   ar
    48    47    41   ar
    49    28    29    1
    50    16    17    1
    51    16    18    1
    52    37    40    1
