@<TRIPOS>MOLECULE
*****
 32 34 0 0 0
SMALL
GASTEIGER

@<TRIPOS>ATOM
      1 C          63.6427   89.1599   15.3137 C.2     1  UNL1        0.2534
      2 O          62.3753   89.3404   16.0953 O.2     1  UNL1       -0.2695
      3 N          64.2745   87.8033   15.2121 N.am    1  UNL1       -0.2965
      4 H          65.1064   87.6848   14.6991 H       1  UNL1        0.1501
      5 C          66.3260   94.7601   10.5114 C.3     1  UNL1        0.0537
      6 C          66.0667   93.9625   11.7551 C.ar    1  UNL1        0.0771
      7 N          66.6492   94.4046   13.0647 N.ar    1  UNL1       -0.1522
      8 N          66.3900   93.6070   14.3083 N.ar    1  UNL1       -0.1416
      9 C          65.5481   92.3673   14.2423 C.ar    1  UNL1        0.1333
     10 S          65.1235   91.3853   15.2936 S.2     1  UNL1       -0.0604
     11 C          64.2785   90.3362   14.6338 C.ar    1  UNL1        0.0971
     12 C          64.1809   90.6698   13.1746 C.ar    1  UNL1        0.0538
     13 N          63.4304   89.8859   12.1392 N.pl3   1  UNL1       -0.3564
     14 C          64.9656   91.9252   12.9327 C.ar    1  UNL1        0.0363
     15 C          65.2248   92.7228   11.6891 C.ar    1  UNL1       -0.0033
     16 C          64.6422   92.2806   10.3794 C.3     1  UNL1        0.0324
     17 H          62.9427   89.0704   12.3970 H       1  UNL1        0.1424
     18 H          63.4254   90.1868   11.2018 H       1  UNL1        0.1424
     19 C          63.6387   86.6271   15.8920 C.3     1  UNL1        0.1166
     20 C          63.4561   85.3383   15.1465 C.ar    1  UNL1       -0.0025
     21 C          64.1643   85.1193   13.8425 C.ar    1  UNL1       -0.0013
     22 C          63.9817   83.8306   13.0970 C.ar    1  UNL1        0.0184
     23 C          63.0908   82.7608   13.6556 C.ar    1  UNL1        0.1142
     24 C          62.3826   82.9798   14.9595 C.ar    1  UNL1        0.0184
     25 C          62.5652   84.2685   15.7050 C.ar    1  UNL1       -0.0013
     26 S          62.9082   81.4720   12.9100 S.O2    1  UNL1        0.0920
     27 O          63.1399   80.7055   14.1783 O.2     1  UNL1       -0.1612
     28 O          62.6764   82.2386   11.6416 O.2     1  UNL1       -0.1612
     29 C          62.7255   80.1833   12.1645 C.3     1  UNL1        0.5262
     30 F          62.3900   79.4871   13.4501 F       1  UNL1       -0.1500
     31 F          63.0611   80.8795   10.8789 F       1  UNL1       -0.1500
     32 F          62.5429   78.8946   11.4189 F       1  UNL1       -0.1500
@<TRIPOS>BOND
     1     5     6    1
     2     6     7   ar
     3     7     8   ar
     4     8     9   ar
     5     9    10   ar
     6    10    11   ar
     7    11     1    1
     8     1     2    2
     9     1     3   am
    10     3    19    1
    11    19    20    1
    12    20    21   ar
    13    21    22   ar
    14    22    23   ar
    15    23    26    1
    16    26    27    2
    17    26    28    2
    18    26    29    1
    19    29    30    1
    20    29    31    1
    21    29    32    1
    22    23    24   ar
    23    24    25   ar
    24    11    12   ar
    25    12    13    1
    26    12    14   ar
    27    14    15   ar
    28    15    16    1
    29    15     6   ar
    30    14     9   ar
    31    25    20   ar
    32     3     4    1
    33    13    17    1
    34    13    18    1
@<TRIPOS>MOLECULE
*****
 32 34 0 0 0
SMALL
GASTEIGER

@<TRIPOS>ATOM
      1 C          63.9020   88.2975   15.1067 C.2     1  UNL1        0.2534
      2 O          63.3120   88.7985   16.3915 O.2     1  UNL1       -0.2695
      3 N          64.5864   89.2517   14.1733 N.am    1  UNL1       -0.2965
      4 H          64.9736   88.9229   13.3300 H       1  UNL1        0.1501
      5 C          62.9772   81.1857   11.9143 C.3     1  UNL1        0.0537
      6 C          63.2790   82.2642   12.9122 C.ar    1  UNL1        0.0771
      7 N          63.7194   81.9007   14.2992 N.ar    1  UNL1       -0.1522
      8 N          64.0213   82.9792   15.2971 N.ar    1  UNL1       -0.1416
      9 C          63.8828   84.4212   14.9079 C.ar    1  UNL1        0.1333
     10 S          64.1085   85.6928   15.6708 S.2     1  UNL1       -0.0604
     11 C          63.8077   86.8423   14.7552 C.ar    1  UNL1        0.0971
     12 C          63.3960   86.2810   13.4265 C.ar    1  UNL1        0.0538
     13 N          63.0063   87.0764   12.2159 N.pl3   1  UNL1       -0.3564
     14 C          63.4424   84.7847   13.5209 C.ar    1  UNL1        0.0363
     15 C          63.1405   83.7062   12.5230 C.ar    1  UNL1       -0.0033
     16 C          62.7002   84.0698   11.1359 C.3     1  UNL1        0.0324
     17 H          63.0068   88.0602   12.2522 H       1  UNL1        0.1424
     18 H          62.7501   86.6146   11.3850 H       1  UNL1        0.1424
     19 C          64.6807   90.7068   14.5248 C.3     1  UNL1        0.1166
     20 C          65.1664   91.6946   13.5058 C.ar    1  UNL1       -0.0025
     21 C          66.1201   92.7800   13.9085 C.ar    1  UNL1       -0.0013
     22 C          66.6058   93.7678   12.8895 C.ar    1  UNL1        0.0184
     23 C          66.1377   93.6701   11.4677 C.ar    1  UNL1        0.1142
     24 C          65.1839   92.5848   11.0650 C.ar    1  UNL1        0.0184
     25 C          64.6983   91.5970   12.0840 C.ar    1  UNL1       -0.0013
     26 S          66.6234   94.6579   10.4487 S.O2    1  UNL1        0.0920
     27 O          67.8459   93.8197   10.2187 O.2     1  UNL1       -0.1612
     28 O          65.4009   95.4963   10.6786 O.2     1  UNL1       -0.1612
     29 C          67.1091   95.6457    9.4297 C.3     1  UNL1        0.5262
     30 F          67.1027   96.7243   10.4722 F       1  UNL1       -0.1500
     31 F          67.1156   94.5672    8.3873 F       1  UNL1       -0.1500
     32 F          67.5948   96.6336    8.4107 F       1  UNL1       -0.1500
@<TRIPOS>BOND
     1     5     6    1
     2     6     7   ar
     3     7     8   ar
     4     8     9   ar
     5     9    10   ar
     6    10    11   ar
     7    11     1    1
     8     1     2    2
     9     1     3   am
    10     3    19    1
    11    19    20    1
    12    20    21   ar
    13    21    22   ar
    14    22    23   ar
    15    23    26    1
    16    26    27    2
    17    26    28    2
    18    26    29    1
    19    29    30    1
    20    29    31    1
    21    29    32    1
    22    23    24   ar
    23    24    25   ar
    24    11    12   ar
    25    12    13    1
    26    12    14   ar
    27    14    15   ar
    28    15    16    1
    29    15     6   ar
    30    14     9   ar
    31    25    20   ar
    32     3     4    1
    33    13    17    1
    34    13    18    1
@<TRIPOS>MOLECULE
*****
 32 34 0 0 0
SMALL
GASTEIGER

@<TRIPOS>ATOM
      1 C          62.6342   86.8035   11.0885 C.2     1  UNL1        0.2534
      2 O          62.3273   87.3930    9.7438 O.2     1  UNL1       -0.2695
      3 N          62.8724   87.7028   12.2651 N.am    1  UNL1       -0.2965
      4 H          63.0738   87.3159   13.1476 H       1  UNL1        0.1501
      5 C          62.5898   79.2987   13.3908 C.3     1  UNL1        0.0537
      6 C          62.7292   80.5162   12.5257 C.ar    1  UNL1        0.0771
      7 N          63.1270   80.3722   11.0867 N.ar    1  UNL1       -0.1522
      8 N          63.2663   81.5896   10.2216 N.ar    1  UNL1       -0.1416
      9 C          63.0078   82.9511   10.7956 C.ar    1  UNL1        0.1333
     10 S          63.0653   84.3227   10.1911 S.2     1  UNL1       -0.0604
     11 C          62.7030   85.3144   11.2566 C.ar    1  UNL1        0.0971
     12 C          62.4216   84.5558   12.5196 C.ar    1  UNL1        0.0538
     13 N          62.0220   85.1529   13.8363 N.pl3   1  UNL1       -0.3564
     14 C          62.6100   83.0951   12.2346 C.ar    1  UNL1        0.0363
     15 C          62.4707   81.8777   13.0997 C.ar    1  UNL1       -0.0033
     16 C          62.0728   82.0217   14.5389 C.3     1  UNL1        0.0324
     17 H          61.9236   86.1284   13.9248 H       1  UNL1        0.1424
     18 H          61.8582   84.5692   14.6120 H       1  UNL1        0.1424
     19 C          62.8036   89.1918   12.0970 C.3     1  UNL1        0.1166
     20 C          63.8127   90.0705   12.7749 C.ar    1  UNL1       -0.0025
     21 C          64.2691   91.3370   12.1133 C.ar    1  UNL1       -0.0013
     22 C          65.2782   92.2157   12.7912 C.ar    1  UNL1        0.0184
     23 C          65.8309   91.8279   14.1307 C.ar    1  UNL1        0.1142
     24 C          65.3745   90.5614   14.7923 C.ar    1  UNL1        0.0184
     25 C          64.3654   89.6828   14.1143 C.ar    1  UNL1       -0.0013
     26 S          66.8400   92.7067   14.8086 S.O2    1  UNL1        0.0920
     27 O          66.1089   93.9223   14.3212 O.2     1  UNL1       -0.1612
     28 O          67.5712   91.4910   15.2960 O.2     1  UNL1       -0.1612
     29 C          67.8491   93.5853   15.4865 C.3     1  UNL1        0.5262
     30 F          67.4644   94.7218   14.5861 F       1  UNL1       -0.1500
     31 F          68.2338   92.4490   16.3868 F       1  UNL1       -0.1500
     32 F          68.8583   94.4640   16.1645 F       1  UNL1       -0.1500
@<TRIPOS>BOND
     1     5     6    1
     2     6     7   ar
     3     7     8   ar
     4     8     9   ar
     5     9    10   ar
     6    10    11   ar
     7    11     1    1
     8     1     2    2
     9     1     3   am
    10     3    19    1
    11    19    20    1
    12    20    21   ar
    13    21    22   ar
    14    22    23   ar
    15    23    26    1
    16    26    27    2
    17    26    28    2
    18    26    29    1
    19    29    30    1
    20    29    31    1
    21    29    32    1
    22    23    24   ar
    23    24    25   ar
    24    11    12   ar
    25    12    13    1
    26    12    14   ar
    27    14    15   ar
    28    15    16    1
    29    15     6   ar
    30    14     9   ar
    31    25    20   ar
    32     3     4    1
    33    13    17    1
    34    13    18    1
@<TRIPOS>MOLECULE
*****
 32 34 0 0 0
SMALL
GASTEIGER

@<TRIPOS>ATOM
      1 C          62.7518   86.6855   11.7132 C.2     1  UNL1        0.2534
      2 O          62.5138   87.0475   10.2771 O.2     1  UNL1       -0.2695
      3 N          63.0582   87.7580   12.7161 N.am    1  UNL1       -0.2965
      4 H          63.2144   87.5205   13.6586 H       1  UNL1        0.1501
      5 C          62.6969   78.8787   12.5345 C.3     1  UNL1        0.0537
      6 C          62.6081   80.3400   12.8613 C.ar    1  UNL1        0.0771
      7 N          62.3121   80.7780   14.2650 N.ar    1  UNL1       -0.1522
      8 N          62.2233   82.2393   14.5918 N.ar    1  UNL1       -0.1416
      9 C          62.4304   83.2626   13.5148 C.ar    1  UNL1        0.1333
     10 S          62.4040   84.7622   13.5366 S.2     1  UNL1       -0.0604
     11 C          62.6835   85.2510   12.1463 C.ar    1  UNL1        0.0971
     12 C          62.8828   84.0535   11.2652 C.ar    1  UNL1        0.0538
     13 N          63.1853   84.0802    9.7963 N.pl3   1  UNL1       -0.3564
     14 C          62.7263   82.8246   12.1111 C.ar    1  UNL1        0.0363
     15 C          62.8152   81.3633   11.7843 C.ar    1  UNL1       -0.0033
     16 C          63.1111   80.9253   10.3804 C.3     1  UNL1        0.0324
     17 H          63.2695   84.9414    9.3266 H       1  UNL1        0.1424
     18 H          63.2997   83.2366    9.3019 H       1  UNL1        0.1424
     19 C          63.1264   89.1925   12.2829 C.3     1  UNL1        0.1166
     20 C          64.1032   90.1267   12.9335 C.ar    1  UNL1       -0.0025
     21 C          64.6804   89.7920   14.2769 C.ar    1  UNL1       -0.0013
     22 C          65.6571   90.7262   14.9274 C.ar    1  UNL1        0.0184
     23 C          66.0566   91.9952   14.2345 C.ar    1  UNL1        0.1142
     24 C          65.4794   92.3299   12.8911 C.ar    1  UNL1        0.0184
     25 C          64.5027   91.3957   12.2406 C.ar    1  UNL1       -0.0013
     26 S          67.0334   92.9295   14.8851 S.O2    1  UNL1        0.0920
     27 O          67.7013   91.7651   15.5545 O.2     1  UNL1       -0.1612
     28 O          66.3655   94.0939   14.2156 O.2     1  UNL1       -0.1612
     29 C          68.0100   93.8637   15.5356 C.3     1  UNL1        0.5262
     30 F          67.4590   95.0018   14.7286 F       1  UNL1       -0.1500
     31 F          68.5611   92.7257   16.3425 F       1  UNL1       -0.1500
     32 F          68.9868   94.7980   16.1862 F       1  UNL1       -0.1500
@<TRIPOS>BOND
     1     5     6    1
     2     6     7   ar
     3     7     8   ar
     4     8     9   ar
     5     9    10   ar
     6    10    11   ar
     7    11     1    1
     8     1     2    2
     9     1     3   am
    10     3    19    1
    11    19    20    1
    12    20    21   ar
    13    21    22   ar
    14    22    23   ar
    15    23    26    1
    16    26    27    2
    17    26    28    2
    18    26    29    1
    19    29    30    1
    20    29    31    1
    21    29    32    1
    22    23    24   ar
    23    24    25   ar
    24    11    12   ar
    25    12    13    1
    26    12    14   ar
    27    14    15   ar
    28    15    16    1
    29    15     6   ar
    30    14     9   ar
    31    25    20   ar
    32     3     4    1
    33    13    17    1
    34    13    18    1
@<TRIPOS>MOLECULE
*****
 32 34 0 0 0
SMALL
GASTEIGER

@<TRIPOS>ATOM
      1 C          63.4640   87.2227   13.7229 C.2     1  UNL1        0.2534
      2 O          63.8780   87.4573   15.1454 O.2     1  UNL1       -0.2695
      3 N          63.1646   88.3878   12.8270 N.am    1  UNL1       -0.2965
      4 H          62.8929   88.2338   11.8933 H       1  UNL1        0.1501
      5 C          62.4068   79.5638   12.3633 C.3     1  UNL1        0.0537
      6 C          62.7405   81.0101   12.1465 C.ar    1  UNL1        0.0771
      7 N          63.2095   81.4780   10.8008 N.ar    1  UNL1       -0.1522
      8 N          63.5432   82.9243   10.5840 N.ar    1  UNL1       -0.1416
      9 C          63.4078   83.9026   11.7129 C.ar    1  UNL1        0.1333
     10 S          63.6617   85.3785   11.7979 S.2     1  UNL1       -0.0604
     11 C          63.3495   85.8228   13.1962 C.ar    1  UNL1        0.0971
     12 C          62.9027   84.6214   13.9754 C.ar    1  UNL1        0.0538
     13 N          62.4920   84.6090   15.4180 N.pl3   1  UNL1       -0.3564
     14 C          62.9388   83.4347   13.0586 C.ar    1  UNL1        0.0363
     15 C          62.6051   81.9884   13.2754 C.ar    1  UNL1       -0.0033
     16 C          62.1360   81.5205   14.6213 C.3     1  UNL1        0.0324
     17 H          62.5015   85.4438   15.9398 H       1  UNL1        0.1424
     18 H          62.2129   83.7660   15.8431 H       1  UNL1        0.1424
     19 C          63.2791   89.7876   13.3536 C.3     1  UNL1        0.1166
     20 C          64.0600   90.8151   12.5890 C.ar    1  UNL1       -0.0025
     21 C          65.1868   91.5486   13.2540 C.ar    1  UNL1       -0.0013
     22 C          65.9676   92.5760   12.4894 C.ar    1  UNL1        0.0184
     23 C          65.6216   92.8700   11.0598 C.ar    1  UNL1        0.1142
     24 C          64.4948   92.1365   10.3947 C.ar    1  UNL1        0.0184
     25 C          63.7140   91.1091   11.1593 C.ar    1  UNL1       -0.0013
     26 S          66.4026   93.8974   10.2951 S.O2    1  UNL1        0.0920
     27 O          67.3280   92.8258    9.8002 O.2     1  UNL1       -0.1612
     28 O          65.4770   94.9692   10.7901 O.2     1  UNL1       -0.1612
     29 C          67.1834   94.9249    9.5306 C.3     1  UNL1        0.5262
     30 F          68.3629   93.9989    9.4907 F       1  UNL1       -0.1500
     31 F          66.0040   95.8508    9.5704 F       1  UNL1       -0.1500
     32 F          67.9642   95.9524    8.7660 F       1  UNL1       -0.1500
@<TRIPOS>BOND
     1     5     6    1
     2     6     7   ar
     3     7     8   ar
     4     8     9   ar
     5     9    10   ar
     6    10    11   ar
     7    11     1    1
     8     1     2    2
     9     1     3   am
    10     3    19    1
    11    19    20    1
    12    20    21   ar
    13    21    22   ar
    14    22    23   ar
    15    23    26    1
    16    26    27    2
    17    26    28    2
    18    26    29    1
    19    29    30    1
    20    29    31    1
    21    29    32    1
    22    23    24   ar
    23    24    25   ar
    24    11    12   ar
    25    12    13    1
    26    12    14   ar
    27    14    15   ar
    28    15    16    1
    29    15     6   ar
    30    14     9   ar
    31    25    20   ar
    32     3     4    1
    33    13    17    1
    34    13    18    1
