@<TRIPOS>MOLECULE
*****
 39 43 0 0 0
SMALL
GASTEIGER

@<TRIPOS>ATOM
      1 C          62.7499   85.8675   12.3020 C.cat   1  UNL1        0.3755
      2 N          63.4854   86.8201   13.1973 N.2     1  UNL1       -0.0826
      3 C          63.4887   88.2881   12.8892 C.3     1  UNL1        0.2640
      4 C          62.7564   88.8035   11.6858 C.ar    1  UNL1        0.0615
      5 C          62.7597   90.2715   11.3777 C.ar    1  UNL1        0.0031
      6 C          62.0274   90.7869   10.1744 C.ar    1  UNL1        0.0002
      7 C          61.2918   89.8343    9.2791 C.ar    1  UNL1        0.0071
      8 C          61.2885   88.3663    9.5872 C.ar    1  UNL1        0.0816
      9 C          62.0208   87.8509   10.7906 C.ar    1  UNL1        0.1133
     10 N          62.0175   86.3829   11.0987 N.pl3   1  UNL1       -0.2049
     11 H          61.5348   85.7576   10.5111 H       1  UNL1        0.2512
     12 C          62.4972   84.5307   15.2682 C.3     1  UNL1        0.0469
     13 C          62.6305   83.7850   13.9736 C.3     1  UNL1        0.1718
     14 C          62.6710   82.2939   13.8150 C.2     1  UNL1        0.1005
     15 N          62.6243   80.9927   14.5596 N.2     1  UNL1       -0.1534
     16 N          62.7366   79.8814   13.5584 N.2     1  UNL1       -0.1512
     17 C          62.8527   80.4958   12.1950 C.2     1  UNL1        0.1044
     18 C          62.8122   81.9869   12.3536 C.3     1  UNL1        0.1213
     19 C          62.8589   83.2882   11.6089 C.3     1  UNL1        0.1793
     20 N          62.7466   84.3994   12.6102 N.pl3   1  UNL1       -0.1954
     21 C          60.5529   87.4137    8.6920 C.2     1  UNL1        0.2453
     22 N          59.2901   87.8491    8.0096 N.am    1  UNL1       -0.3252
     23 O          61.0801   86.0257    8.4791 O.2     1  UNL1       -0.2703
     24 H          58.9440   88.7601    8.1493 H       1  UNL1        0.1453
     25 H          58.8073   87.2239    7.4220 H       1  UNL1        0.1453
     26 N          64.2243   89.2407   13.7844 N.3     1  UNL1       -0.2571
     27 H          65.1505   88.8428   13.9401 H       1  UNL1        0.1270
     28 C          64.4305   90.6637   13.3574 C.3     1  UNL1        0.1006
     29 C          65.3511   91.5549   14.1374 C.ar    1  UNL1        0.0251
     30 C          65.2228   91.6441   15.6293 C.ar    1  UNL1        0.1374
     31 F          64.1740   90.8420   16.3411 F       1  UNL1       -0.2045
     32 C          66.1433   92.5353   16.4093 C.ar    1  UNL1        0.0293
     33 C          67.1921   93.3374   15.6973 C.ar    1  UNL1        0.0022
     34 C          67.3203   93.2482   14.2055 C.ar    1  UNL1        0.0037
     35 C          66.3998   92.3570   13.4255 C.ar    1  UNL1        0.0709
     36 C          66.5281   92.2679   11.9336 C.3     1  UNL1        0.4184
     37 F          66.6563   92.1788   10.4418 F       1  UNL1       -0.1659
     38 F          67.8403   91.5580   12.0888 F       1  UNL1       -0.1659
     39 F          65.2159   92.9777   11.7785 F       1  UNL1       -0.1659
@<TRIPOS>BOND
     1    13    12    1
     2    13    14    1
     3    14    15    2
     4    15    16    1
     5    16    17    2
     6    17    18    1
     7    18    19    1
     8    19    20    1
     9    20     1    1
    10     1     2    2
    11     2     3    1
    12     3    26    1
    13    26    28    1
    14    28    29    1
    15    29    30   ar
    16    30    31    1
    17    30    32   ar
    18    32    33   ar
    19    33    34   ar
    20    34    35   ar
    21    35    36    1
    22    36    37    1
    23    36    38    1
    24    36    39    1
    25     3     4    1
    26     4     5   ar
    27     5     6   ar
    28     6     7   ar
    29     7     8   ar
    30     8    21    1
    31    21    22   am
    32    21    23    2
    33     8     9   ar
    34     9    10    1
    35    20    13    1
    36    10     1    1
    37    18    14    1
    38    35    29   ar
    39     9     4   ar
    40    26    27    1
    41    22    24    1
    42    22    25    1
    43    10    11    1
@<TRIPOS>MOLECULE
*****
 39 43 0 0 0
SMALL
GASTEIGER

@<TRIPOS>ATOM
      1 C          62.3879   86.1378   11.7872 C.cat   1  UNL1        0.3755
      2 N          62.8236   87.3811   12.5046 N.2     1  UNL1       -0.0826
      3 C          62.4641   88.7294   11.9544 C.3     1  UNL1        0.2640
      4 C          61.6689   88.8346   10.6868 C.ar    1  UNL1        0.0615
      5 C          61.3094   90.1829   10.1366 C.ar    1  UNL1        0.0031
      6 C          60.5143   90.2880    8.8691 C.ar    1  UNL1        0.0002
      7 C          60.0787   89.0448    8.1517 C.ar    1  UNL1        0.0071
      8 C          60.4382   87.6964    8.7019 C.ar    1  UNL1        0.0816
      9 C          61.2333   87.5913    9.9694 C.ar    1  UNL1        0.1133
     10 N          61.5928   86.2430   10.5197 N.pl3   1  UNL1       -0.2049
     11 H          61.3069   85.4270   10.0488 H       1  UNL1        0.2512
     12 C          63.8511   85.5608   14.6465 C.3     1  UNL1        0.0469
     13 C          63.4200   84.5242   13.6517 C.3     1  UNL1        0.1718
     14 C          63.5857   83.0405   13.7965 C.2     1  UNL1        0.1005
     15 N          64.1038   81.9595   14.6982 N.2     1  UNL1       -0.1534
     16 N          63.8539   80.6397   14.0307 N.2     1  UNL1       -0.1512
     17 C          63.1813   80.9049   12.7164 C.2     1  UNL1        0.1044
     18 C          63.0156   82.3886   12.5717 C.3     1  UNL1        0.1213
     19 C          62.4975   83.4697   11.6699 C.3     1  UNL1        0.1793
     20 N          62.7475   84.7895   12.3374 N.pl3   1  UNL1       -0.1954
     21 C          60.0025   86.4532    7.9845 C.2     1  UNL1        0.2453
     22 N          58.5593   86.2626    7.6230 N.am    1  UNL1       -0.3252
     23 O          61.0101   85.4006    7.6286 O.2     1  UNL1       -0.2703
     24 H          57.8980   86.9535    7.8566 H       1  UNL1        0.1453
     25 H          58.2734   85.4466    7.1522 H       1  UNL1        0.1453
     26 N          62.8997   89.9726   12.6718 N.3     1  UNL1       -0.2571
     27 H          63.2222   89.6822   13.5949 H       1  UNL1        0.1270
     28 C          63.9783   90.8363   12.0882 C.3     1  UNL1        0.1006
     29 C          64.8674   91.6387   12.9913 C.ar    1  UNL1        0.0251
     30 C          65.6095   92.8255   12.4520 C.ar    1  UNL1        0.1374
     31 F          65.4624   93.2099   11.0096 F       1  UNL1       -0.2045
     32 C          66.4986   93.6279   13.3551 C.ar    1  UNL1        0.0293
     33 C          66.6457   93.2435   14.7975 C.ar    1  UNL1        0.0022
     34 C          65.9037   92.0567   15.3368 C.ar    1  UNL1        0.0037
     35 C          65.0145   91.2543   14.4337 C.ar    1  UNL1        0.0709
     36 C          64.2724   90.0675   14.9731 C.3     1  UNL1        0.4184
     37 F          63.5304   88.8807   15.5124 F       1  UNL1       -0.1659
     38 F          63.2372   90.9811   15.5592 F       1  UNL1       -0.1659
     39 F          65.3077   89.1539   14.3870 F       1  UNL1       -0.1659
@<TRIPOS>BOND
     1    13    12    1
     2    13    14    1
     3    14    15    2
     4    15    16    1
     5    16    17    2
     6    17    18    1
     7    18    19    1
     8    19    20    1
     9    20     1    1
    10     1     2    2
    11     2     3    1
    12     3    26    1
    13    26    28    1
    14    28    29    1
    15    29    30   ar
    16    30    31    1
    17    30    32   ar
    18    32    33   ar
    19    33    34   ar
    20    34    35   ar
    21    35    36    1
    22    36    37    1
    23    36    38    1
    24    36    39    1
    25     3     4    1
    26     4     5   ar
    27     5     6   ar
    28     6     7   ar
    29     7     8   ar
    30     8    21    1
    31    21    22   am
    32    21    23    2
    33     8     9   ar
    34     9    10    1
    35    20    13    1
    36    10     1    1
    37    18    14    1
    38    35    29   ar
    39     9     4   ar
    40    26    27    1
    41    22    24    1
    42    22    25    1
    43    10    11    1
@<TRIPOS>MOLECULE
*****
 39 43 0 0 0
SMALL
GASTEIGER

@<TRIPOS>ATOM
      1 C          62.4548   86.2139   11.7856 C.cat   1  UNL1        0.3755
      2 N          62.9123   87.4607   12.4829 N.2     1  UNL1       -0.0826
      3 C          62.5538   88.8063   11.9256 C.3     1  UNL1        0.2640
      4 C          61.7376   88.9053   10.6709 C.ar    1  UNL1        0.0615
      5 C          61.3791   90.2509   10.1135 C.ar    1  UNL1        0.0031
      6 C          60.5630   90.3497    8.8589 C.ar    1  UNL1        0.0002
      7 C          60.1054   89.1030    8.1616 C.ar    1  UNL1        0.0071
      8 C          60.4640   87.7573    8.7190 C.ar    1  UNL1        0.0816
      9 C          61.2801   87.6585    9.9736 C.ar    1  UNL1        0.1133
     10 N          61.6387   86.3128   10.5310 N.pl3   1  UNL1       -0.2049
     11 H          61.3384   85.4945   10.0734 H       1  UNL1        0.2512
     12 C          63.9546   85.6532   14.6291 C.3     1  UNL1        0.0469
     13 C          63.5028   84.6105   13.6500 C.3     1  UNL1        0.1718
     14 C          63.6610   83.1271   13.8061 C.2     1  UNL1        0.1005
     15 N          64.1848   82.0510   14.7102 N.2     1  UNL1       -0.1534
     16 N          63.9169   80.7268   14.0584 N.2     1  UNL1       -0.1512
     17 C          63.2275   80.9845   12.7514 C.2     1  UNL1        0.1044
     18 C          63.0693   82.4679   12.5954 C.3     1  UNL1        0.1213
     19 C          62.5454   83.5441   11.6912 C.3     1  UNL1        0.1793
     20 N          62.8134   84.8683   12.3431 N.pl3   1  UNL1       -0.1954
     21 C          60.0064   86.5106    8.0217 C.2     1  UNL1        0.2453
     22 N          58.5606   86.3411    7.6600 N.am    1  UNL1       -0.3252
     23 O          60.9947   85.4333    7.6861 O.2     1  UNL1       -0.2703
     24 H          57.9119   87.0482    7.8803 H       1  UNL1        0.1453
     25 H          58.2603   85.5228    7.2023 H       1  UNL1        0.1453
     26 N          63.0113   90.0531   12.6229 N.3     1  UNL1       -0.2571
     27 H          63.1121   89.8181   13.6103 H       1  UNL1        0.1270
     28 C          64.2874   90.7212   12.2043 C.3     1  UNL1        0.1006
     29 C          65.0798   91.5154   13.2000 C.ar    1  UNL1        0.0251
     30 C          64.8920   91.2774   14.6691 C.ar    1  UNL1        0.1374
     31 F          63.9120   90.2453   15.1425 F       1  UNL1       -0.2045
     32 C          65.6844   92.0716   15.6648 C.ar    1  UNL1        0.0293
     33 C          66.6645   93.1038   15.1914 C.ar    1  UNL1        0.0022
     34 C          66.8522   93.3417   13.7224 C.ar    1  UNL1        0.0037
     35 C          66.0599   92.5475   12.7267 C.ar    1  UNL1        0.0709
     36 C          66.2476   92.7855   11.2576 C.3     1  UNL1        0.4184
     37 F          66.4354   93.0235    9.7886 F       1  UNL1       -0.1659
     38 F          65.0047   93.6249   11.2347 F       1  UNL1       -0.1659
     39 F          67.4905   91.9462   11.2805 F       1  UNL1       -0.1659
@<TRIPOS>BOND
     1    13    12    1
     2    13    14    1
     3    14    15    2
     4    15    16    1
     5    16    17    2
     6    17    18    1
     7    18    19    1
     8    19    20    1
     9    20     1    1
    10     1     2    2
    11     2     3    1
    12     3    26    1
    13    26    28    1
    14    28    29    1
    15    29    30   ar
    16    30    31    1
    17    30    32   ar
    18    32    33   ar
    19    33    34   ar
    20    34    35   ar
    21    35    36    1
    22    36    37    1
    23    36    38    1
    24    36    39    1
    25     3     4    1
    26     4     5   ar
    27     5     6   ar
    28     6     7   ar
    29     7     8   ar
    30     8    21    1
    31    21    22   am
    32    21    23    2
    33     8     9   ar
    34     9    10    1
    35    20    13    1
    36    10     1    1
    37    18    14    1
    38    35    29   ar
    39     9     4   ar
    40    26    27    1
    41    22    24    1
    42    22    25    1
    43    10    11    1
@<TRIPOS>MOLECULE
*****
 39 43 0 0 0
SMALL
GASTEIGER

@<TRIPOS>ATOM
      1 C          63.7479   88.9090   13.1931 C.cat   1  UNL1        0.3755
      2 N          63.9174   87.4841   13.6299 N.2     1  UNL1       -0.0826
      3 C          63.2689   86.3786   12.8507 C.3     1  UNL1        0.2640
      4 C          62.4507   86.6979   11.6346 C.ar    1  UNL1        0.0615
      5 C          61.8022   85.5924   10.8555 C.ar    1  UNL1        0.0031
      6 C          60.9840   85.9119    9.6395 C.ar    1  UNL1        0.0002
      7 C          60.8145   87.3368    9.2027 C.ar    1  UNL1        0.0071
      8 C          61.4630   88.4423    9.9819 C.ar    1  UNL1        0.0816
      9 C          62.2811   88.1229   11.1979 C.ar    1  UNL1        0.1133
     10 N          62.9297   89.2284   11.9771 N.pl3   1  UNL1       -0.2049
     11 H          62.8185   90.1637   11.6905 H       1  UNL1        0.2512
     12 C          63.1672   89.6500   16.3177 C.3     1  UNL1        0.0469
     13 C          64.1295   90.3551   15.4085 C.3     1  UNL1        0.1718
     14 C          64.9940   91.5247   15.7760 C.2     1  UNL1        0.1005
     15 N          65.3633   92.4580   16.8906 N.2     1  UNL1       -0.1534
     16 N          66.3927   93.4170   16.3704 N.2     1  UNL1       -0.1512
     17 C          66.6596   93.0764   14.9342 C.2     1  UNL1        0.1044
     18 C          65.7952   91.9069   14.5668 C.3     1  UNL1        0.1213
     19 C          65.4259   90.9735   13.4520 C.3     1  UNL1        0.1793
     20 N          64.3965   90.0146   13.9723 N.pl3   1  UNL1       -0.1954
     21 C          61.2934   89.8673    9.5451 C.2     1  UNL1        0.2453
     22 N          59.9769   90.3321    8.9970 N.am    1  UNL1       -0.3252
     23 O          62.4405   90.8274    9.6565 O.2     1  UNL1       -0.2703
     24 H          59.2240   89.7019    8.9239 H       1  UNL1        0.1453
     25 H          59.8656   91.2673    8.7103 H       1  UNL1        0.1453
     26 N          63.4384   84.9536   13.2875 N.3     1  UNL1       -0.2571
     27 H          62.5027   84.5537   13.3572 H       1  UNL1        0.1270
     28 C          64.2533   84.0066   12.4573 C.3     1  UNL1        0.1006
     29 C          63.7175   82.6442   12.1304 C.ar    1  UNL1        0.0251
     30 C          63.8771   82.0877   10.7466 C.ar    1  UNL1        0.1374
     31 F          64.5725   82.8936    9.6897 F       1  UNL1       -0.2045
     32 C          63.3413   80.7254   10.4197 C.ar    1  UNL1        0.0293
     33 C          62.6459   79.9195   11.4766 C.ar    1  UNL1        0.0022
     34 C          62.4863   80.4760   12.8603 C.ar    1  UNL1        0.0037
     35 C          63.0221   81.8383   13.1872 C.ar    1  UNL1        0.0709
     36 C          62.8625   82.3948   14.5711 C.3     1  UNL1        0.4184
     37 F          62.7029   82.9513   15.9548 F       1  UNL1       -0.1659
     38 F          61.3938   82.5785   14.3278 F       1  UNL1       -0.1659
     39 F          64.3311   82.2112   14.8143 F       1  UNL1       -0.1659
@<TRIPOS>BOND
     1    13    12    1
     2    13    14    1
     3    14    15    2
     4    15    16    1
     5    16    17    2
     6    17    18    1
     7    18    19    1
     8    19    20    1
     9    20     1    1
    10     1     2    2
    11     2     3    1
    12     3    26    1
    13    26    28    1
    14    28    29    1
    15    29    30   ar
    16    30    31    1
    17    30    32   ar
    18    32    33   ar
    19    33    34   ar
    20    34    35   ar
    21    35    36    1
    22    36    37    1
    23    36    38    1
    24    36    39    1
    25     3     4    1
    26     4     5   ar
    27     5     6   ar
    28     6     7   ar
    29     7     8   ar
    30     8    21    1
    31    21    22   am
    32    21    23    2
    33     8     9   ar
    34     9    10    1
    35    20    13    1
    36    10     1    1
    37    18    14    1
    38    35    29   ar
    39     9     4   ar
    40    26    27    1
    41    22    24    1
    42    22    25    1
    43    10    11    1
@<TRIPOS>MOLECULE
*****
 39 43 0 0 0
SMALL
GASTEIGER

@<TRIPOS>ATOM
      1 C          62.7078   88.4502   11.3151 C.cat   1  UNL1        0.3755
      2 N          63.0514   86.9958   11.4442 N.2     1  UNL1       -0.0826
      3 C          62.3941   85.9875   10.5491 C.3     1  UNL1        0.2640
      4 C          61.3932   86.4336    9.5248 C.ar    1  UNL1        0.0615
      5 C          60.7359   85.4253    8.6297 C.ar    1  UNL1        0.0031
      6 C          59.7350   85.8713    7.6054 C.ar    1  UNL1        0.0002
      7 C          59.3914   87.3257    7.4762 C.ar    1  UNL1        0.0071
      8 C          60.0487   88.3340    8.3714 C.ar    1  UNL1        0.0816
      9 C          61.0496   87.8879    9.3956 C.ar    1  UNL1        0.1133
     10 N          61.7069   88.8963   10.2908 N.pl3   1  UNL1       -0.2049
     11 H          61.4814   89.8508   10.2060 H       1  UNL1        0.2512
     12 C          63.7425   91.4157   10.4293 C.3     1  UNL1        0.0469
     13 C          63.8407   90.8216   11.8031 C.3     1  UNL1        0.1718
     14 C          64.4318   91.4862   13.0109 C.2     1  UNL1        0.1005
     15 N          65.0910   92.7394   13.5058 N.2     1  UNL1       -0.1534
     16 N          65.3881   92.5616   14.9653 N.2     1  UNL1       -0.1512
     17 C          64.9125   91.1985   15.3725 C.2     1  UNL1        0.1044
     18 C          64.3215   90.5339   14.1646 C.3     1  UNL1        0.1213
     19 C          63.6622   89.2806   13.6697 C.3     1  UNL1        0.1793
     20 N          63.3651   89.4585   12.2102 N.pl3   1  UNL1       -0.1954
     21 C          59.7050   89.7884    8.2422 C.2     1  UNL1        0.2453
     22 N          59.3805   90.3657    6.8964 N.am    1  UNL1       -0.3252
     23 O          59.6859   90.6655    9.4589 O.2     1  UNL1       -0.2703
     24 H          59.3930   89.7901    6.0978 H       1  UNL1        0.1453
     25 H          59.1549   91.3203    6.8116 H       1  UNL1        0.1453
     26 N          62.7378   84.5331   10.6782 N.3     1  UNL1       -0.2571
     27 H          63.3115   84.2932    9.8697 H       1  UNL1        0.1270
     28 C          63.4706   84.0404   11.8907 C.3     1  UNL1        0.1006
     29 C          63.0861   82.7342   12.5202 C.ar    1  UNL1        0.0251
     30 C          62.9905   81.4958   11.6792 C.ar    1  UNL1        0.1374
     31 F          63.2793   81.5636   10.2088 F       1  UNL1       -0.2045
     32 C          62.6060   80.1897   12.3086 C.ar    1  UNL1        0.0293
     33 C          62.3172   80.1220   13.7790 C.ar    1  UNL1        0.0022
     34 C          62.4128   81.3604   14.6199 C.ar    1  UNL1        0.0037
     35 C          62.7973   82.6665   13.9905 C.ar    1  UNL1        0.0709
     36 C          62.8929   83.9049   14.8315 C.3     1  UNL1        0.4184
     37 F          62.9885   85.1433   15.6725 F       1  UNL1       -0.1659
     38 F          64.3427   83.6186   15.0884 F       1  UNL1       -0.1659
     39 F          61.4431   84.1913   14.5746 F       1  UNL1       -0.1659
@<TRIPOS>BOND
     1    13    12    1
     2    13    14    1
     3    14    15    2
     4    15    16    1
     5    16    17    2
     6    17    18    1
     7    18    19    1
     8    19    20    1
     9    20     1    1
    10     1     2    2
    11     2     3    1
    12     3    26    1
    13    26    28    1
    14    28    29    1
    15    29    30   ar
    16    30    31    1
    17    30    32   ar
    18    32    33   ar
    19    33    34   ar
    20    34    35   ar
    21    35    36    1
    22    36    37    1
    23    36    38    1
    24    36    39    1
    25     3     4    1
    26     4     5   ar
    27     5     6   ar
    28     6     7   ar
    29     7     8   ar
    30     8    21    1
    31    21    22   am
    32    21    23    2
    33     8     9   ar
    34     9    10    1
    35    20    13    1
    36    10     1    1
    37    18    14    1
    38    35    29   ar
    39     9     4   ar
    40    26    27    1
    41    22    24    1
    42    22    25    1
    43    10    11    1
@<TRIPOS>MOLECULE
*****
 39 43 0 0 0
SMALL
GASTEIGER

@<TRIPOS>ATOM
      1 C          62.3532   87.4768   11.5323 C.cat   1  UNL1        0.3755
      2 N          63.0202   88.5747   12.3067 N.2     1  UNL1       -0.0826
      3 C          63.8589   88.2444   13.5056 C.3     1  UNL1        0.2640
      4 C          64.0306   86.8160   13.9302 C.ar    1  UNL1        0.0615
      5 C          64.8693   86.4856   15.1291 C.ar    1  UNL1        0.0031
      6 C          65.0411   85.0572   15.5536 C.ar    1  UNL1        0.0002
      7 C          64.3741   83.9593   14.7792 C.ar    1  UNL1        0.0071
      8 C          63.5355   84.2896   13.5803 C.ar    1  UNL1        0.0816
      9 C          63.3637   85.7180   13.1558 C.ar    1  UNL1        0.1133
     10 N          62.5250   86.0484   11.9568 N.pl3   1  UNL1       -0.2049
     11 H          62.0873   85.3278   11.4486 H       1  UNL1        0.2512
     12 C          61.3871   85.3762    9.2294 C.3     1  UNL1        0.0469
     13 C          61.0704   86.8417    9.2748 C.3     1  UNL1        0.1718
     14 C          60.2541   87.5989    8.2697 C.2     1  UNL1        0.1005
     15 N          59.4751   87.4703    6.9943 N.2     1  UNL1       -0.1534
     16 N          58.9333   88.8243    6.6435 N.2     1  UNL1       -0.1512
     17 C          59.3774   89.7898    7.7020 C.2     1  UNL1        0.1044
     18 C          60.1937   89.0325    8.7071 C.3     1  UNL1        0.1213
     19 C          60.9727   89.1612    9.9826 C.3     1  UNL1        0.1793
     20 N          61.5145   87.8072   10.3333 N.pl3   1  UNL1       -0.1954
     21 C          62.8685   83.1917   12.8060 C.2     1  UNL1        0.2453
     22 N          62.1109   82.1176   13.5286 N.am    1  UNL1       -0.3252
     23 O          62.9593   83.1677   11.3089 O.2     1  UNL1       -0.2703
     24 H          62.0513   82.1333   14.5112 H       1  UNL1        0.1453
     25 H          61.6731   81.3970   13.0204 H       1  UNL1        0.1453
     26 N          64.5258   89.3423   14.2799 N.3     1  UNL1       -0.2571
     27 H          65.5240   89.2794   14.0799 H       1  UNL1        0.1270
     28 C          64.1276   90.7703   14.0511 C.3     1  UNL1        0.1006
     29 C          64.8890   91.6135   13.0717 C.ar    1  UNL1        0.0251
     30 C          64.3784   91.7825   11.6714 C.ar    1  UNL1        0.1374
     31 F          63.1063   91.1082   11.2506 F       1  UNL1       -0.2045
     32 C          65.1398   92.6257   10.6921 C.ar    1  UNL1        0.0293
     33 C          66.4119   93.3000   11.1130 C.ar    1  UNL1        0.0022
     34 C          66.9225   93.1310   12.5133 C.ar    1  UNL1        0.0037
     35 C          66.1611   92.2878   13.4926 C.ar    1  UNL1        0.0709
     36 C          66.6718   92.1188   14.8929 C.3     1  UNL1        0.4184
     37 F          67.1824   91.9498   16.2931 F       1  UNL1       -0.1659
     38 F          65.9092   93.3384   15.3182 F       1  UNL1       -0.1659
     39 F          67.4344   90.8992   14.4676 F       1  UNL1       -0.1659
@<TRIPOS>BOND
     1    13    12    1
     2    13    14    1
     3    14    15    2
     4    15    16    1
     5    16    17    2
     6    17    18    1
     7    18    19    1
     8    19    20    1
     9    20     1    1
    10     1     2    2
    11     2     3    1
    12     3    26    1
    13    26    28    1
    14    28    29    1
    15    29    30   ar
    16    30    31    1
    17    30    32   ar
    18    32    33   ar
    19    33    34   ar
    20    34    35   ar
    21    35    36    1
    22    36    37    1
    23    36    38    1
    24    36    39    1
    25     3     4    1
    26     4     5   ar
    27     5     6   ar
    28     6     7   ar
    29     7     8   ar
    30     8    21    1
    31    21    22   am
    32    21    23    2
    33     8     9   ar
    34     9    10    1
    35    20    13    1
    36    10     1    1
    37    18    14    1
    38    35    29   ar
    39     9     4   ar
    40    26    27    1
    41    22    24    1
    42    22    25    1
    43    10    11    1
@<TRIPOS>MOLECULE
*****
 39 43 0 0 0
SMALL
GASTEIGER

@<TRIPOS>ATOM
      1 C          62.2918   85.2712   11.6440 C.cat   1  UNL1        0.3755
      2 N          62.9769   86.2567   12.5438 N.2     1  UNL1       -0.0826
      3 C          62.8824   87.7259   12.2569 C.3     1  UNL1        0.2640
      4 C          62.1028   88.2098   11.0702 C.ar    1  UNL1        0.0615
      5 C          62.0083   89.6790   10.7833 C.ar    1  UNL1        0.0031
      6 C          61.2287   90.1628    9.5967 C.ar    1  UNL1        0.0002
      7 C          60.5436   89.1774    8.6970 C.ar    1  UNL1        0.0071
      8 C          60.6381   87.7081    8.9839 C.ar    1  UNL1        0.0816
      9 C          61.4177   87.2243   10.1705 C.ar    1  UNL1        0.1133
     10 N          61.5122   85.7550   10.4574 N.pl3   1  UNL1       -0.2049
     11 H          61.0625   85.1082    9.8669 H       1  UNL1        0.2512
     12 C          63.8006   83.0482    9.7918 C.3     1  UNL1        0.0469
     13 C          63.0798   82.7801   11.0796 C.3     1  UNL1        0.1718
     14 C          62.9260   81.4432   11.7421 C.2     1  UNL1        0.1005
     15 N          63.2595   79.9854   11.6254 N.2     1  UNL1       -0.1534
     16 N          62.6771   79.2800   12.8142 N.2     1  UNL1       -0.1512
     17 C          61.9835   80.3018   13.6656 C.2     1  UNL1        0.1044
     18 C          62.1373   81.6387   13.0031 C.3     1  UNL1        0.1213
     19 C          61.8038   83.0966   13.1198 C.3     1  UNL1        0.1793
     20 N          62.3863   83.8019   11.9310 N.pl3   1  UNL1       -0.1954
     21 C          59.9530   86.7227    8.0841 C.2     1  UNL1        0.2453
     22 N          58.4760   86.8269    7.8443 N.am    1  UNL1       -0.3252
     23 O          60.7448   85.6330    7.4242 O.2     1  UNL1       -0.2703
     24 H          57.9562   87.5421    8.2773 H       1  UNL1        0.1453
     25 H          58.0263   86.1802    7.2537 H       1  UNL1        0.1453
     26 N          63.5675   88.7113   13.1566 N.3     1  UNL1       -0.2571
     27 H          62.8335   89.2502   13.6163 H       1  UNL1        0.1270
     28 C          64.4893   88.2265   14.2361 C.3     1  UNL1        0.1006
     29 C          63.9263   87.7069   15.5257 C.ar    1  UNL1        0.0251
     30 C          63.2519   88.6456   16.4819 C.ar    1  UNL1        0.1374
     31 F          63.1406   90.1038   16.1484 F       1  UNL1       -0.2045
     32 C          62.6889   88.1261   17.7714 C.ar    1  UNL1        0.0293
     33 C          62.8002   86.6678   18.1049 C.ar    1  UNL1        0.0022
     34 C          63.4746   85.7292   17.1487 C.ar    1  UNL1        0.0037
     35 C          64.0376   86.2488   15.8592 C.ar    1  UNL1        0.0709
     36 C          64.7119   85.3101   14.9030 C.3     1  UNL1        0.4184
     37 F          65.3863   84.3714   13.9469 F       1  UNL1       -0.1659
     38 F          63.4468   84.5117   14.7944 F       1  UNL1       -0.1659
     39 F          65.9771   86.1085   15.0116 F       1  UNL1       -0.1659
@<TRIPOS>BOND
     1    13    12    1
     2    13    14    1
     3    14    15    2
     4    15    16    1
     5    16    17    2
     6    17    18    1
     7    18    19    1
     8    19    20    1
     9    20     1    1
    10     1     2    2
    11     2     3    1
    12     3    26    1
    13    26    28    1
    14    28    29    1
    15    29    30   ar
    16    30    31    1
    17    30    32   ar
    18    32    33   ar
    19    33    34   ar
    20    34    35   ar
    21    35    36    1
    22    36    37    1
    23    36    38    1
    24    36    39    1
    25     3     4    1
    26     4     5   ar
    27     5     6   ar
    28     6     7   ar
    29     7     8   ar
    30     8    21    1
    31    21    22   am
    32    21    23    2
    33     8     9   ar
    34     9    10    1
    35    20    13    1
    36    10     1    1
    37    18    14    1
    38    35    29   ar
    39     9     4   ar
    40    26    27    1
    41    22    24    1
    42    22    25    1
    43    10    11    1
@<TRIPOS>MOLECULE
*****
 39 43 0 0 0
SMALL
GASTEIGER

@<TRIPOS>ATOM
      1 C          64.1493   89.3375   13.2382 C.cat   1  UNL1        0.3755
      2 N          64.2329   88.0108   13.9331 N.2     1  UNL1       -0.0826
      3 C          63.4512   86.8411   13.4128 C.3     1  UNL1        0.2640
      4 C          62.5857   86.9981   12.1977 C.ar    1  UNL1        0.0615
      5 C          61.8040   85.8284   11.6775 C.ar    1  UNL1        0.0031
      6 C          60.9387   85.9854   10.4624 C.ar    1  UNL1        0.0002
      7 C          60.8550   87.3122    9.7676 C.ar    1  UNL1        0.0071
      8 C          61.6367   88.4818   10.2878 C.ar    1  UNL1        0.0816
      9 C          62.5021   88.3248   11.5029 C.ar    1  UNL1        0.1133
     10 N          63.2839   89.4945   12.0232 N.pl3   1  UNL1       -0.2049
     11 H          63.2290   90.3653   11.5671 H       1  UNL1        0.2512
     12 C          64.9345   92.0211   11.5556 C.3     1  UNL1        0.0469
     13 C          65.2920   91.7407   12.9851 C.3     1  UNL1        0.1718
     14 C          66.0731   92.6446   13.8921 C.2     1  UNL1        0.1005
     15 N          66.7790   93.9656   13.9748 N.2     1  UNL1       -0.1534
     16 N          67.3371   94.1071   15.3599 N.2     1  UNL1       -0.1512
     17 C          66.9761   92.8736   16.1333 C.2     1  UNL1        0.1044
     18 C          66.1950   91.9697   15.2262 C.3     1  UNL1        0.1213
     19 C          65.4891   90.6487   15.1436 C.3     1  UNL1        0.1793
     20 N          64.9310   90.5072   13.7585 N.pl3   1  UNL1       -0.1954
     21 C          61.5531   89.8086    9.5930 C.2     1  UNL1        0.2453
     22 N          60.3283   90.1663    8.8044 N.am    1  UNL1       -0.3252
     23 O          62.6943   90.7775    9.6866 O.2     1  UNL1       -0.2703
     24 H          59.5793   89.5304    8.7429 H       1  UNL1        0.1453
     25 H          60.2734   91.0371    8.3484 H       1  UNL1        0.1453
     26 N          63.5348   85.5144   14.1077 N.3     1  UNL1       -0.2571
     27 H          62.5843   85.2643   14.3803 H       1  UNL1        0.1270
     28 C          64.1062   84.3271   13.3909 C.3     1  UNL1        0.1006
     29 C          63.3463   83.0343   13.3571 C.ar    1  UNL1        0.0251
     30 C          62.5802   82.5827   14.5651 C.ar    1  UNL1        0.1374
     31 F          62.5742   83.4239   15.8070 F       1  UNL1       -0.2045
     32 C          61.8203   81.2899   14.5312 C.ar    1  UNL1        0.0293
     33 C          61.8264   80.4487   13.2893 C.ar    1  UNL1        0.0022
     34 C          62.5924   80.9002   12.0813 C.ar    1  UNL1        0.0037
     35 C          63.3524   82.1930   12.1152 C.ar    1  UNL1        0.0709
     36 C          64.1184   82.6446   10.9071 C.3     1  UNL1        0.4184
     37 F          64.8844   83.0962    9.6991 F       1  UNL1       -0.1659
     38 F          65.3842   82.1123   11.5108 F       1  UNL1       -0.1659
     39 F          62.8526   83.1769   10.3035 F       1  UNL1       -0.1659
@<TRIPOS>BOND
     1    13    12    1
     2    13    14    1
     3    14    15    2
     4    15    16    1
     5    16    17    2
     6    17    18    1
     7    18    19    1
     8    19    20    1
     9    20     1    1
    10     1     2    2
    11     2     3    1
    12     3    26    1
    13    26    28    1
    14    28    29    1
    15    29    30   ar
    16    30    31    1
    17    30    32   ar
    18    32    33   ar
    19    33    34   ar
    20    34    35   ar
    21    35    36    1
    22    36    37    1
    23    36    38    1
    24    36    39    1
    25     3     4    1
    26     4     5   ar
    27     5     6   ar
    28     6     7   ar
    29     7     8   ar
    30     8    21    1
    31    21    22   am
    32    21    23    2
    33     8     9   ar
    34     9    10    1
    35    20    13    1
    36    10     1    1
    37    18    14    1
    38    35    29   ar
    39     9     4   ar
    40    26    27    1
    41    22    24    1
    42    22    25    1
    43    10    11    1
@<TRIPOS>MOLECULE
*****
 39 43 0 0 0
SMALL
GASTEIGER

@<TRIPOS>ATOM
      1 C          62.2863   87.3566   11.5152 C.cat   1  UNL1        0.3755
      2 N          62.9511   88.4612   12.2818 N.2     1  UNL1       -0.0826
      3 C          63.8104   88.1391   13.4683 C.3     1  UNL1        0.2640
      4 C          64.0050   86.7122   13.8882 C.ar    1  UNL1        0.0615
      5 C          64.8643   86.3901   15.0747 C.ar    1  UNL1        0.0031
      6 C          65.0588   84.9633   15.4945 C.ar    1  UNL1        0.0002
      7 C          64.3940   83.8586   14.7279 C.ar    1  UNL1        0.0071
      8 C          63.5346   84.1807   13.5415 C.ar    1  UNL1        0.0816
      9 C          63.3402   85.6076   13.1216 C.ar    1  UNL1        0.1133
     10 N          62.4808   85.9298   11.9351 N.pl3   1  UNL1       -0.2049
     11 H          62.0444   85.2047   11.4319 H       1  UNL1        0.2512
     12 C          61.9814   90.2841   10.1059 C.3     1  UNL1        0.0469
     13 C          61.2868   89.0244    9.6809 C.3     1  UNL1        0.1718
     14 C          60.3301   88.8891    8.5335 C.2     1  UNL1        0.1005
     15 N          59.6523   89.6371    7.4241 N.2     1  UNL1       -0.1534
     16 N          58.7822   88.6702    6.6770 N.2     1  UNL1       -0.1512
     17 C          58.9223   87.3246    7.3248 C.2     1  UNL1        0.1044
     18 C          59.8790   87.4599    8.4722 C.3     1  UNL1        0.1213
     19 C          60.5569   86.7118    9.5817 C.3     1  UNL1        0.1793
     20 N          61.4269   87.6788   10.3287 N.pl3   1  UNL1       -0.1954
     21 C          62.8698   83.0761   12.7749 C.2     1  UNL1        0.2453
     22 N          62.1325   81.9938   13.5063 N.am    1  UNL1       -0.3252
     23 O          62.9423   83.0536   11.2768 O.2     1  UNL1       -0.2703
     24 H          62.0848   82.0086   14.4895 H       1  UNL1        0.1453
     25 H          61.6961   81.2688   13.0031 H       1  UNL1        0.1453
     26 N          64.4753   89.2438   14.2349 N.3     1  UNL1       -0.2571
     27 H          65.4294   88.9374   14.4251 H       1  UNL1        0.1270
     28 C          64.5720   90.6171   13.6395 C.3     1  UNL1        0.1006
     29 C          65.4908   91.6351   14.2474 C.ar    1  UNL1        0.0251
     30 C          65.4846   91.8602   15.7305 C.ar    1  UNL1        0.1374
     31 F          64.5597   91.0673   16.6056 F       1  UNL1       -0.2045
     32 C          66.4034   92.8782   16.3384 C.ar    1  UNL1        0.0293
     33 C          67.3284   93.6711   15.4632 C.ar    1  UNL1        0.0022
     34 C          67.3345   93.4460   13.9803 C.ar    1  UNL1        0.0037
     35 C          66.4157   92.4280   13.3724 C.ar    1  UNL1        0.0709
     36 C          66.4219   92.2030   11.8893 C.3     1  UNL1        0.4184
     37 F          66.4280   91.9780   10.4063 F       1  UNL1       -0.1659
     38 F          67.8023   91.6236   11.9829 F       1  UNL1       -0.1659
     39 F          65.0415   92.7824   11.7957 F       1  UNL1       -0.1659
@<TRIPOS>BOND
     1    13    12    1
     2    13    14    1
     3    14    15    2
     4    15    16    1
     5    16    17    2
     6    17    18    1
     7    18    19    1
     8    19    20    1
     9    20     1    1
    10     1     2    2
    11     2     3    1
    12     3    26    1
    13    26    28    1
    14    28    29    1
    15    29    30   ar
    16    30    31    1
    17    30    32   ar
    18    32    33   ar
    19    33    34   ar
    20    34    35   ar
    21    35    36    1
    22    36    37    1
    23    36    38    1
    24    36    39    1
    25     3     4    1
    26     4     5   ar
    27     5     6   ar
    28     6     7   ar
    29     7     8   ar
    30     8    21    1
    31    21    22   am
    32    21    23    2
    33     8     9   ar
    34     9    10    1
    35    20    13    1
    36    10     1    1
    37    18    14    1
    38    35    29   ar
    39     9     4   ar
    40    26    27    1
    41    22    24    1
    42    22    25    1
    43    10    11    1
