@<TRIPOS>MOLECULE
*****
 53 57 0 0 0
SMALL
GASTEIGER

@<TRIPOS>ATOM
      1 C          62.9955   90.1697   12.1758 C.3     1  UNL1        0.0760
      2 C          63.6924   88.8381   14.2951 C.2     1  UNL1        0.2407
      3 O          64.8259   89.7938   14.5228 O.2     1  UNL1       -0.2733
      4 N          62.7772   89.0260   13.1215 N.am    1  UNL1       -0.3043
      5 H          62.0333   88.3988   12.9720 H       1  UNL1        0.1494
      6 N          63.6519   84.1868   13.2950 N.am    1  UNL1       -0.2566
      7 C          63.8655   83.6195   11.9231 C.3     1  UNL1        0.1168
      8 C          63.6837   85.6715   13.5061 C.2     1  UNL1        0.3079
      9 O          63.9292   86.5889   12.3449 O.2     1  UNL1       -0.2523
     10 N          63.4702   86.2388   14.8781 N.am    1  UNL1       -0.2547
     11 C          63.2150   85.4504   16.1284 C.3     1  UNL1        0.1245
     12 C          63.0614   86.4185   17.2638 C.3     1  UNL1        0.1325
     13 O          62.7945   86.0623   18.6961 O.3     1  UNL1       -0.3826
     14 C          63.2215   87.8054   16.7152 C.3     1  UNL1        0.0602
     15 C          63.4741   87.6944   15.2408 C.3     1  UNL1        0.1555
     16 H          62.7345   85.0981   18.7837 H       1  UNL1        0.2104
     17 C          63.4064   83.2694   14.4562 C.3     1  UNL1        0.1413
     18 C          60.6627   80.5354   14.2068 C.ar    1  UNL1        0.0875
     19 N          61.0864   81.9428   14.5060 N.ar    1  UNL1       -0.2453
     20 C          62.5654   82.0404   14.2763 C.ar    1  UNL1        0.0858
     21 C          63.0559   80.6933   13.8352 C.ar    1  UNL1        0.0530
     22 S          61.8799   79.7630   13.7922 S.2     1  UNL1       -0.0705
     23 C          58.0933   80.9140   14.1365 C.3     1  UNL1        0.0069
     24 C          59.2668   79.9951   14.3050 C.3     1  UNL1        0.0465
     25 C          59.0444   78.5358   14.5717 C.3     1  UNL1        0.0069
     26 C          62.6108   90.0333   10.7324 C.3     1  UNL1        0.0216
     27 C          61.1665   90.0949   10.3323 C.3     1  UNL1        0.0217
     28 C          60.6454   89.1831    9.2611 C.3     1  UNL1        0.0792
     29 N          60.3459   89.7253    7.8950 N.am    1  UNL1       -0.2720
     30 C          59.1806   89.1920    7.1154 C.2     1  UNL1        0.4019
     31 O          58.3149   88.1166    7.7019 O.2     1  UNL1       -0.2264
     32 H          60.9141   90.4311    7.5101 H       1  UNL1        0.1527
     33 O          58.8810   89.7342    5.7492 O.3     1  UNL1       -0.4291
     34 C          58.9827   91.2078    5.4883 C.3     1  UNL1        0.2447
     35 C          59.9526   91.7235    4.4669 C.ar    1  UNL1        0.0714
     36 C          61.3909   91.3191    4.3337 C.ar    1  UNL1        0.1053
     37 N          61.9817   92.0798    3.1838 N.ar    1  UNL1       -0.2350
     38 C          60.9086   92.9543    2.6063 C.ar    1  UNL1        0.1343
     39 S          59.6545   92.7341    3.3993 S.2     1  UNL1       -0.0652
     40 C          60.4239   87.7292    9.5562 C.3     1  UNL1        0.0460
     41 C          61.1731   86.6844    8.7834 C.ar    1  UNL1       -0.0205
     42 C          60.5242   86.0090    7.6117 C.ar    1  UNL1       -0.0042
     43 C          61.2734   84.9643    6.8390 C.ar    1  UNL1       -0.0003
     44 C          62.6715   84.5950    7.2378 C.ar    1  UNL1       -0.0000
     45 C          63.3203   85.2704    8.4094 C.ar    1  UNL1       -0.0003
     46 C          62.5712   86.3151    9.1822 C.ar    1  UNL1       -0.0042
     47 C          63.5986   91.4498   12.6735 C.3     1  UNL1        0.0459
     48 C          64.8735   91.9620   12.0717 C.ar    1  UNL1       -0.0205
     49 C          64.8838   92.4778   10.6632 C.ar    1  UNL1       -0.0042
     50 C          66.1588   92.9900   10.0614 C.ar    1  UNL1       -0.0003
     51 C          67.4234   92.9864   10.8680 C.ar    1  UNL1       -0.0000
     52 C          67.4131   92.4706   12.2765 C.ar    1  UNL1       -0.0003
     53 C          66.1382   91.9584   12.8784 C.ar    1  UNL1       -0.0042
@<TRIPOS>BOND
     1    23    24    1
     2    24    25    1
     3    24    18    1
     4    18    19   ar
     5    19    20   ar
     6    20    17    1
     7    17     6    1
     8     6     7    1
     9     6     8   am
    10     8     9    2
    11     8    10   am
    12    10    11    1
    13    11    12    1
    14    12    13    1
    15    12    14    1
    16    14    15    1
    17    15     2    1
    18     2     3    2
    19     2     4   am
    20     4     1    1
    21     1    26    1
    22    26    27    1
    23    28    27    1
    24    28    40    1
    25    40    41    1
    26    41    42   ar
    27    42    43   ar
    28    43    44   ar
    29    44    45   ar
    30    45    46   ar
    31    28    29    1
    32    29    30   am
    33    30    31    2
    34    30    33    1
    35    33    34    1
    36    34    35    1
    37    35    36   ar
    38    36    37   ar
    39    37    38   ar
    40    38    39   ar
    41     1    47    1
    42    47    48    1
    43    48    49   ar
    44    49    50   ar
    45    50    51   ar
    46    51    52   ar
    47    52    53   ar
    48    20    21   ar
    49    21    22   ar
    50    22    18   ar
    51    15    10    1
    52    46    41   ar
    53    39    35   ar
    54    53    48   ar
    55    13    16    1
    56     4     5    1
    57    29    32    1
@<TRIPOS>MOLECULE
*****
 53 57 0 0 0
SMALL
GASTEIGER

@<TRIPOS>ATOM
      1 C          63.1067   90.4341   12.1827 C.3     1  UNL1        0.0760
      2 C          63.7716   89.0480   14.2772 C.2     1  UNL1        0.2407
      3 O          65.0017   89.8900   14.4440 O.2     1  UNL1       -0.2733
      4 N          62.8241   89.3200   13.1465 N.am    1  UNL1       -0.3043
      5 H          62.0167   88.7673   13.0371 H       1  UNL1        0.1494
      6 N          63.6055   84.3788   13.3787 N.am    1  UNL1       -0.2566
      7 C          63.8389   83.7736   12.0263 C.3     1  UNL1        0.1168
      8 C          63.6805   85.8662   13.5580 C.2     1  UNL1        0.3079
      9 O          63.9889   86.7483   12.3846 O.2     1  UNL1       -0.2523
     10 N          63.4471   86.4713   14.9104 N.am    1  UNL1       -0.2547
     11 C          63.1308   85.7204   16.1698 C.3     1  UNL1        0.1245
     12 C          62.9773   86.7187   17.2787 C.3     1  UNL1        0.1325
     13 O          62.6584   86.4042   18.7102 O.3     1  UNL1       -0.3826
     14 C          63.1986   88.0868   16.7047 C.3     1  UNL1        0.0602
     15 C          63.4890   87.9339   15.2410 C.3     1  UNL1        0.1555
     16 H          62.5641   85.4448   18.8172 H       1  UNL1        0.2104
     17 C          63.2971   83.4966   14.5521 C.3     1  UNL1        0.1413
     18 C          60.6794   80.6489   14.2318 C.ar    1  UNL1        0.0875
     19 N          61.0334   82.0753   14.5314 N.ar    1  UNL1       -0.2453
     20 C          62.5147   82.2322   14.3547 C.ar    1  UNL1        0.0858
     21 C          63.0761   80.9027   13.9459 C.ar    1  UNL1        0.0530
     22 S          61.9419   79.9241   13.8699 S.2     1  UNL1       -0.0705
     23 C          58.0987   80.9306   14.1286 C.3     1  UNL1        0.0069
     24 C          59.3043   80.0519   14.2847 C.3     1  UNL1        0.0465
     25 C          59.1348   78.5762   14.4938 C.3     1  UNL1        0.0069
     26 C          64.0119   91.5610   12.5835 C.3     1  UNL1        0.0216
     27 C          64.6926   92.3864   11.5322 C.3     1  UNL1        0.0217
     28 C          66.1756   92.6031   11.5924 C.3     1  UNL1        0.0792
     29 N          66.8013   93.7268   10.8206 N.am    1  UNL1       -0.2720
     30 C          67.6631   93.4298    9.6292 C.2     1  UNL1        0.4019
     31 O          67.8990   92.0091    9.2097 O.2     1  UNL1       -0.2264
     32 H          66.6465   94.6593   11.0959 H       1  UNL1        0.1527
     33 O          68.2888   94.5535    8.8573 O.3     1  UNL1       -0.4291
     34 C          67.9271   95.9741    9.1748 C.3     1  UNL1        0.2447
     35 C          66.5224   96.3197    9.5716 C.ar    1  UNL1        0.0714
     36 C          66.0276   96.5272   10.9723 C.ar    1  UNL1        0.1053
     37 N          64.5653   96.8542   10.9038 N.ar    1  UNL1       -0.2350
     38 C          64.1563   96.8489    9.4606 C.ar    1  UNL1        0.1343
     39 S          65.3659   96.5186    8.6373 S.2     1  UNL1       -0.0652
     40 C          67.0329   91.6962   12.4246 C.3     1  UNL1        0.0460
     41 C          67.4838   92.1322   13.7872 C.ar    1  UNL1       -0.0205
     42 C          68.9464   92.1644   14.1185 C.ar    1  UNL1       -0.0042
     43 C          69.3973   92.6004   15.4811 C.ar    1  UNL1       -0.0003
     44 C          68.3855   93.0042   16.5123 C.ar    1  UNL1       -0.0000
     45 C          66.9230   92.9720   16.1810 C.ar    1  UNL1       -0.0003
     46 C          66.4721   92.5360   14.8184 C.ar    1  UNL1       -0.0042
     47 C          62.4842   90.4211   10.8180 C.3     1  UNL1        0.0459
     48 C          61.7817   89.1906   10.3258 C.ar    1  UNL1       -0.0205
     49 C          62.5782   88.0152    9.8419 C.ar    1  UNL1       -0.0042
     50 C          61.8758   86.7847    9.3497 C.ar    1  UNL1       -0.0003
     51 C          60.3768   86.7295    9.3413 C.ar    1  UNL1       -0.0000
     52 C          59.5803   87.9049    9.8251 C.ar    1  UNL1       -0.0003
     53 C          60.2827   89.1354   10.3173 C.ar    1  UNL1       -0.0042
@<TRIPOS>BOND
     1    23    24    1
     2    24    25    1
     3    24    18    1
     4    18    19   ar
     5    19    20   ar
     6    20    17    1
     7    17     6    1
     8     6     7    1
     9     6     8   am
    10     8     9    2
    11     8    10   am
    12    10    11    1
    13    11    12    1
    14    12    13    1
    15    12    14    1
    16    14    15    1
    17    15     2    1
    18     2     3    2
    19     2     4   am
    20     4     1    1
    21     1    26    1
    22    26    27    1
    23    28    27    1
    24    28    40    1
    25    40    41    1
    26    41    42   ar
    27    42    43   ar
    28    43    44   ar
    29    44    45   ar
    30    45    46   ar
    31    28    29    1
    32    29    30   am
    33    30    31    2
    34    30    33    1
    35    33    34    1
    36    34    35    1
    37    35    36   ar
    38    36    37   ar
    39    37    38   ar
    40    38    39   ar
    41     1    47    1
    42    47    48    1
    43    48    49   ar
    44    49    50   ar
    45    50    51   ar
    46    51    52   ar
    47    52    53   ar
    48    20    21   ar
    49    21    22   ar
    50    22    18   ar
    51    15    10    1
    52    46    41   ar
    53    39    35   ar
    54    53    48   ar
    55    13    16    1
    56     4     5    1
    57    29    32    1
@<TRIPOS>MOLECULE
*****
 53 57 0 0 0
SMALL
GASTEIGER

@<TRIPOS>ATOM
      1 C          63.2313   90.4944   12.3114 C.3     1  UNL1        0.0760
      2 C          63.8400   89.0509   14.3841 C.2     1  UNL1        0.2407
      3 O          65.0971   89.8480   14.5700 O.2     1  UNL1       -0.2733
      4 N          62.9071   89.3742   13.2548 N.am    1  UNL1       -0.3043
      5 H          62.0821   88.8510   13.1328 H       1  UNL1        0.1494
      6 N          63.6290   84.3950   13.4284 N.am    1  UNL1       -0.2566
      7 C          63.8889   83.8013   12.0757 C.3     1  UNL1        0.1168
      8 C          63.7211   85.8790   13.6265 C.2     1  UNL1        0.3079
      9 O          64.0731   86.7693   12.4717 O.2     1  UNL1       -0.2523
     10 N          63.4612   86.4726   14.9792 N.am    1  UNL1       -0.2547
     11 C          63.1010   85.7126   16.2212 C.3     1  UNL1        0.1245
     12 C          62.9330   86.7009   17.3371 C.3     1  UNL1        0.1325
     13 O          62.5720   86.3754   18.7561 O.3     1  UNL1       -0.3826
     14 C          63.1894   88.0717   16.7847 C.3     1  UNL1        0.0602
     15 C          63.5159   87.9307   15.3275 C.3     1  UNL1        0.1555
     16 H          62.4609   85.4164   18.8496 H       1  UNL1        0.2104
     17 C          63.2769   83.5046   14.5832 C.3     1  UNL1        0.1413
     18 C          60.6831   80.6415   14.2100 C.ar    1  UNL1        0.0875
     19 N          61.0315   82.0546   14.5728 N.ar    1  UNL1       -0.2453
     20 C          62.5026   82.2417   14.3477 C.ar    1  UNL1        0.0858
     21 C          63.0634   80.9443   13.8457 C.ar    1  UNL1        0.0530
     22 S          61.9389   79.9552   13.7606 S.2     1  UNL1       -0.0705
     23 C          58.0968   80.8864   14.1716 C.3     1  UNL1        0.0069
     24 C          59.3184   80.0232   14.2836 C.3     1  UNL1        0.0465
     25 C          59.1753   78.5416   14.4691 C.3     1  UNL1        0.0069
     26 C          64.1706   91.5842   12.7358 C.3     1  UNL1        0.0216
     27 C          64.7764   92.4942   11.7088 C.3     1  UNL1        0.0217
     28 C          65.9380   93.3700   12.0746 C.3     1  UNL1        0.0792
     29 N          67.1608   92.7702   12.7031 N.am    1  UNL1       -0.2720
     30 C          68.1552   92.0334   11.8554 C.2     1  UNL1        0.4019
     31 O          67.9267   91.8965   10.3793 O.2     1  UNL1       -0.2264
     32 H          67.3108   92.8601   13.6720 H       1  UNL1        0.1527
     33 O          69.3780   91.4337   12.4839 O.3     1  UNL1       -0.4291
     34 C          69.8735   91.9497   13.8023 C.3     1  UNL1        0.2447
     35 C          68.8973   92.4356   14.8323 C.ar    1  UNL1        0.0714
     36 C          68.9131   93.7802   15.4971 C.ar    1  UNL1        0.1053
     37 N          67.7595   93.8379   16.4540 N.ar    1  UNL1       -0.2350
     38 C          67.0306   92.5289   16.3808 C.ar    1  UNL1        0.1343
     39 S          67.7338   91.6623   15.3785 S.2     1  UNL1       -0.0652
     40 C          65.8768   94.8455   11.8119 C.3     1  UNL1        0.0460
     41 C          66.0463   95.3664   10.4154 C.ar    1  UNL1       -0.0205
     42 C          67.2142   94.9217    9.5857 C.ar    1  UNL1       -0.0042
     43 C          67.3837   95.4426    8.1894 C.ar    1  UNL1       -0.0003
     44 C          66.3854   96.4081    7.6227 C.ar    1  UNL1       -0.0000
     45 C          65.2176   96.8528    8.4523 C.ar    1  UNL1       -0.0003
     46 C          65.0480   96.3319    9.8487 C.ar    1  UNL1       -0.0042
     47 C          62.6162   90.5249   10.9437 C.3     1  UNL1        0.0459
     48 C          61.8987   89.3175   10.4169 C.ar    1  UNL1       -0.0205
     49 C          62.6801   88.1271    9.9453 C.ar    1  UNL1       -0.0042
     50 C          61.9627   86.9197    9.4186 C.ar    1  UNL1       -0.0003
     51 C          60.4638   86.9027    9.3635 C.ar    1  UNL1       -0.0000
     52 C          59.6823   88.0930    9.8352 C.ar    1  UNL1       -0.0003
     53 C          60.3998   89.3004   10.3619 C.ar    1  UNL1       -0.0042
@<TRIPOS>BOND
     1    23    24    1
     2    24    25    1
     3    24    18    1
     4    18    19   ar
     5    19    20   ar
     6    20    17    1
     7    17     6    1
     8     6     7    1
     9     6     8   am
    10     8     9    2
    11     8    10   am
    12    10    11    1
    13    11    12    1
    14    12    13    1
    15    12    14    1
    16    14    15    1
    17    15     2    1
    18     2     3    2
    19     2     4   am
    20     4     1    1
    21     1    26    1
    22    26    27    1
    23    28    27    1
    24    28    40    1
    25    40    41    1
    26    41    42   ar
    27    42    43   ar
    28    43    44   ar
    29    44    45   ar
    30    45    46   ar
    31    28    29    1
    32    29    30   am
    33    30    31    2
    34    30    33    1
    35    33    34    1
    36    34    35    1
    37    35    36   ar
    38    36    37   ar
    39    37    38   ar
    40    38    39   ar
    41     1    47    1
    42    47    48    1
    43    48    49   ar
    44    49    50   ar
    45    50    51   ar
    46    51    52   ar
    47    52    53   ar
    48    20    21   ar
    49    21    22   ar
    50    22    18   ar
    51    15    10    1
    52    46    41   ar
    53    39    35   ar
    54    53    48   ar
    55    13    16    1
    56     4     5    1
    57    29    32    1
@<TRIPOS>MOLECULE
*****
 53 57 0 0 0
SMALL
GASTEIGER

@<TRIPOS>ATOM
      1 C          61.5745   90.2230   11.1192 C.3     1  UNL1        0.0760
      2 C          62.8018   88.0110   11.7118 C.2     1  UNL1        0.2407
      3 O          63.1123   87.7944   10.2604 O.2     1  UNL1       -0.2733
      4 N          62.0329   89.2254   12.1413 N.am    1  UNL1       -0.3043
      5 H          61.8292   89.3676   13.0939 H       1  UNL1        0.1494
      6 N          63.1753   83.2928   11.2271 N.am    1  UNL1       -0.2566
      7 C          62.8363   82.5468    9.9708 C.3     1  UNL1        0.1168
      8 C          63.0228   84.7842   11.2783 C.2     1  UNL1        0.3079
      9 O          62.5312   85.5295   10.0728 O.2     1  UNL1       -0.2523
     10 N          63.3618   85.5301   12.5346 N.am    1  UNL1       -0.2547
     11 C          63.8620   84.9240   13.8123 C.3     1  UNL1        0.1245
     12 C          64.0695   86.0325   14.8012 C.3     1  UNL1        0.1325
     13 O          64.5624   85.8770   16.2093 O.3     1  UNL1       -0.3826
     14 C          63.6976   87.3239   14.1347 C.3     1  UNL1        0.0602
     15 C          63.2603   87.0134   12.7339 C.3     1  UNL1        0.1555
     16 H          64.7305   84.9392   16.3913 H       1  UNL1        0.2104
     17 C          63.6669   82.5475   12.4325 C.3     1  UNL1        0.1413
     18 C          60.8475   80.3240   13.9064 C.ar    1  UNL1        0.0875
     19 N          61.3000   81.5572   13.1823 N.ar    1  UNL1       -0.2453
     20 C          62.7959   81.5128   13.0813 C.ar    1  UNL1        0.0858
     21 C          63.2680   80.2521   13.7429 C.ar    1  UNL1        0.0530
     22 S          62.0638   79.5173   14.2528 S.2     1  UNL1       -0.0705
     23 C          59.0825   78.5530   14.6122 C.3     1  UNL1        0.0069
     24 C          59.4280   79.9610   14.2276 C.3     1  UNL1        0.0465
     25 C          58.3539   81.0062   14.1642 C.3     1  UNL1        0.0069
     26 C          62.4978   91.3175   10.6727 C.3     1  UNL1        0.0216
     27 C          63.9799   91.1665   10.8479 C.3     1  UNL1        0.0217
     28 C          64.6694   91.8261   12.0053 C.3     1  UNL1        0.0792
     29 N          65.2165   93.2152   11.8598 N.am    1  UNL1       -0.2720
     30 C          66.5814   93.4261   11.2744 C.2     1  UNL1        0.4019
     31 O          67.3991   92.2481   10.8346 O.2     1  UNL1       -0.2264
     32 H          64.6798   93.9884   12.1484 H       1  UNL1        0.1527
     33 O          67.1285   94.8152   11.1289 O.3     1  UNL1       -0.4291
     34 C          66.2126   95.9486   10.7733 C.3     1  UNL1        0.2447
     35 C          65.8660   96.2106    9.3376 C.ar    1  UNL1        0.0714
     36 C          64.5638   96.7553    8.8302 C.ar    1  UNL1        0.1053
     37 N          64.6537   96.8553    7.3363 N.ar    1  UNL1       -0.2350
     38 C          66.0115   96.3724    6.9203 C.ar    1  UNL1        0.1343
     39 S          66.7608   95.9740    8.1572 S.2     1  UNL1       -0.0652
     40 C          64.8117   91.0967   13.3082 C.3     1  UNL1        0.0460
     41 C          65.8225   91.5545   14.3176 C.ar    1  UNL1       -0.0205
     42 C          65.3692   92.2024   15.5922 C.ar    1  UNL1       -0.0042
     43 C          66.3799   92.6602   16.6016 C.ar    1  UNL1       -0.0003
     44 C          67.8440   92.4701   16.3362 C.ar    1  UNL1       -0.0000
     45 C          68.2973   91.8223   15.0616 C.ar    1  UNL1       -0.0003
     46 C          67.2865   91.3645   14.0523 C.ar    1  UNL1       -0.0042
     47 C          60.1927   90.1260   10.5436 C.3     1  UNL1        0.0459
     48 C          59.9031   89.1405    9.4505 C.ar    1  UNL1       -0.0205
     49 C          59.7286   89.6162    8.0387 C.ar    1  UNL1       -0.0042
     50 C          59.4389   88.6308    6.9455 C.ar    1  UNL1       -0.0003
     51 C          59.3238   87.1696    7.2642 C.ar    1  UNL1       -0.0000
     52 C          59.4983   86.6938    8.6760 C.ar    1  UNL1       -0.0003
     53 C          59.7879   87.6792    9.7692 C.ar    1  UNL1       -0.0042
@<TRIPOS>BOND
     1    23    24    1
     2    24    25    1
     3    24    18    1
     4    18    19   ar
     5    19    20   ar
     6    20    17    1
     7    17     6    1
     8     6     7    1
     9     6     8   am
    10     8     9    2
    11     8    10   am
    12    10    11    1
    13    11    12    1
    14    12    13    1
    15    12    14    1
    16    14    15    1
    17    15     2    1
    18     2     3    2
    19     2     4   am
    20     4     1    1
    21     1    26    1
    22    26    27    1
    23    28    27    1
    24    28    40    1
    25    40    41    1
    26    41    42   ar
    27    42    43   ar
    28    43    44   ar
    29    44    45   ar
    30    45    46   ar
    31    28    29    1
    32    29    30   am
    33    30    31    2
    34    30    33    1
    35    33    34    1
    36    34    35    1
    37    35    36   ar
    38    36    37   ar
    39    37    38   ar
    40    38    39   ar
    41     1    47    1
    42    47    48    1
    43    48    49   ar
    44    49    50   ar
    45    50    51   ar
    46    51    52   ar
    47    52    53   ar
    48    20    21   ar
    49    21    22   ar
    50    22    18   ar
    51    15    10    1
    52    46    41   ar
    53    39    35   ar
    54    53    48   ar
    55    13    16    1
    56     4     5    1
    57    29    32    1
@<TRIPOS>MOLECULE
*****
 53 57 0 0 0
SMALL
GASTEIGER

@<TRIPOS>ATOM
      1 C          65.1480   90.7789   13.7613 C.3     1  UNL1        0.0760
      2 C          63.5400   89.1279   14.9608 C.2     1  UNL1        0.2407
      3 O          62.3623   89.9038   14.4500 O.2     1  UNL1       -0.2733
      4 N          64.9329   89.5654   14.6164 N.am    1  UNL1       -0.3043
      5 H          65.7059   89.0562   14.9517 H       1  UNL1        0.1494
      6 N          63.6557   84.5604   13.6338 N.am    1  UNL1       -0.2566
      7 C          63.9254   84.0981   12.2326 C.3     1  UNL1        0.1168
      8 C          63.6409   86.0266   13.9502 C.2     1  UNL1        0.3079
      9 O          63.8957   87.0305   12.8651 O.2     1  UNL1       -0.2523
     10 N          63.3713   86.4889   15.3514 N.am    1  UNL1       -0.2547
     11 C          63.1007   85.6069   16.5342 C.3     1  UNL1        0.1245
     12 C          62.8871   86.4873   17.7297 C.3     1  UNL1        0.1325
     13 O          62.5876   86.0231   19.1242 O.3     1  UNL1       -0.3826
     14 C          63.0257   87.9134   17.2858 C.3     1  UNL1        0.0602
     15 C          63.3249   87.9145   15.8160 C.3     1  UNL1        0.1555
     16 H          62.5513   85.0539   19.1415 H       1  UNL1        0.2104
     17 C          63.4009   83.5565   14.7189 C.3     1  UNL1        0.1413
     18 C          60.7835   80.7379   14.1999 C.ar    1  UNL1        0.0875
     19 N          61.1425   82.1294   14.6295 N.ar    1  UNL1       -0.2453
     20 C          62.6166   82.3131   14.4211 C.ar    1  UNL1        0.0858
     21 C          63.1686   81.0351   13.8627 C.ar    1  UNL1        0.0530
     22 S          62.0357   80.0614   13.7259 S.2     1  UNL1       -0.0705
     23 C          59.2456   78.6785   14.5788 C.3     1  UNL1        0.0069
     24 C          59.4129   80.1295   14.2375 C.3     1  UNL1        0.0465
     25 C          58.2097   80.9721   13.9338 C.3     1  UNL1        0.0069
     26 C          63.9703   91.5556   13.2517 C.3     1  UNL1        0.0216
     27 C          64.1709   92.6433   12.2384 C.3     1  UNL1        0.0217
     28 C          64.3795   92.2940   10.7946 C.3     1  UNL1        0.0792
     29 N          63.2221   91.8315    9.9601 N.am    1  UNL1       -0.2720
     30 C          62.6348   90.4690   10.1816 C.2     1  UNL1        0.4019
     31 O          63.2050   89.5692   11.2376 O.2     1  UNL1       -0.2264
     32 H          62.8479   92.4221    9.2670 H       1  UNL1        0.1527
     33 O          61.4774   90.0065    9.3471 O.3     1  UNL1       -0.4291
     34 C          60.6485   88.8396    9.7955 C.3     1  UNL1        0.2447
     35 C          60.5174   87.6310    8.9167 C.ar    1  UNL1        0.0714
     36 C          59.3212   87.2699    8.0868 C.ar    1  UNL1        0.1053
     37 N          59.6239   85.9871    7.3708 N.ar    1  UNL1       -0.2350
     38 C          61.0072   85.5553    7.7582 C.ar    1  UNL1        0.1343
     39 S          61.5594   86.5714    8.7136 S.2     1  UNL1       -0.0652
     40 C          65.7455   92.4073   10.1853 C.3     1  UNL1        0.0460
     41 C          66.3239   93.7588    9.8868 C.ar    1  UNL1       -0.0205
     42 C          67.3114   93.9218    8.7695 C.ar    1  UNL1       -0.0042
     43 C          67.8897   95.2732    8.4711 C.ar    1  UNL1       -0.0003
     44 C          67.4805   96.4616    9.2898 C.ar    1  UNL1       -0.0000
     45 C          66.4931   96.2986   10.4070 C.ar    1  UNL1       -0.0003
     46 C          65.9147   94.9471   10.7055 C.ar    1  UNL1       -0.0042
     47 C          66.5409   91.2155   13.4157 C.3     1  UNL1        0.0459
     48 C          67.3005   92.1091   14.3509 C.ar    1  UNL1       -0.0205
     49 C          68.2634   91.5173   15.3370 C.ar    1  UNL1       -0.0042
     50 C          69.0230   92.4109   16.2722 C.ar    1  UNL1       -0.0003
     51 C          68.8197   93.8961   16.2212 C.ar    1  UNL1       -0.0000
     52 C          67.8567   94.4879   15.2350 C.ar    1  UNL1       -0.0003
     53 C          67.0971   93.5944   14.2998 C.ar    1  UNL1       -0.0042
@<TRIPOS>BOND
     1    23    24    1
     2    24    25    1
     3    24    18    1
     4    18    19   ar
     5    19    20   ar
     6    20    17    1
     7    17     6    1
     8     6     7    1
     9     6     8   am
    10     8     9    2
    11     8    10   am
    12    10    11    1
    13    11    12    1
    14    12    13    1
    15    12    14    1
    16    14    15    1
    17    15     2    1
    18     2     3    2
    19     2     4   am
    20     4     1    1
    21     1    26    1
    22    26    27    1
    23    28    27    1
    24    28    40    1
    25    40    41    1
    26    41    42   ar
    27    42    43   ar
    28    43    44   ar
    29    44    45   ar
    30    45    46   ar
    31    28    29    1
    32    29    30   am
    33    30    31    2
    34    30    33    1
    35    33    34    1
    36    34    35    1
    37    35    36   ar
    38    36    37   ar
    39    37    38   ar
    40    38    39   ar
    41     1    47    1
    42    47    48    1
    43    48    49   ar
    44    49    50   ar
    45    50    51   ar
    46    51    52   ar
    47    52    53   ar
    48    20    21   ar
    49    21    22   ar
    50    22    18   ar
    51    15    10    1
    52    46    41   ar
    53    39    35   ar
    54    53    48   ar
    55    13    16    1
    56     4     5    1
    57    29    32    1
@<TRIPOS>MOLECULE
*****
 53 57 0 0 0
SMALL
GASTEIGER

@<TRIPOS>ATOM
      1 C          61.6954   90.2423   11.3732 C.3     1  UNL1        0.0760
      2 C          62.8178   87.9589   11.8990 C.2     1  UNL1        0.2407
      3 O          63.0390   87.7300   10.4332 O.2     1  UNL1       -0.2733
      4 N          62.1460   89.2150   12.3690 N.am    1  UNL1       -0.3043
      5 H          62.0008   89.3652   13.3311 H       1  UNL1        0.1494
      6 N          63.2223   83.2602   11.2702 N.am    1  UNL1       -0.2566
      7 C          62.9034   82.5528    9.9866 C.3     1  UNL1        0.1168
      8 C          63.0613   84.7485   11.3665 C.2     1  UNL1        0.3079
      9 O          62.5813   85.5292   10.1790 O.2     1  UNL1       -0.2523
     10 N          63.3803   85.4559   12.6500 N.am    1  UNL1       -0.2547
     11 C          63.8672   84.8120   13.9143 C.3     1  UNL1        0.1245
     12 C          64.0562   85.8896   14.9404 C.3     1  UNL1        0.1325
     13 O          64.5317   85.6920   16.3492 O.3     1  UNL1       -0.3826
     14 C          63.6861   87.1996   14.3104 C.3     1  UNL1        0.0602
     15 C          63.2683   86.9316   12.8949 C.3     1  UNL1        0.1555
     16 H          64.7025   84.7497   16.5036 H       1  UNL1        0.2104
     17 C          63.7023   82.4795   12.4577 C.3     1  UNL1        0.1413
     18 C          60.8455   80.2825   13.8987 C.ar    1  UNL1        0.0875
     19 N          61.3202   81.5254   13.2062 N.ar    1  UNL1       -0.2453
     20 C          62.8134   81.4474   13.0859 C.ar    1  UNL1        0.0858
     21 C          63.2614   80.1564   13.7041 C.ar    1  UNL1        0.0530
     22 S          62.0452   79.4363   14.2065 S.2     1  UNL1       -0.0705
     23 C          58.3615   81.0034   14.1435 C.3     1  UNL1        0.0069
     24 C          59.4211   79.9449   14.2261 C.3     1  UNL1        0.0465
     25 C          59.0563   78.5489   14.6360 C.3     1  UNL1        0.0069
     26 C          62.6304   91.3354   10.9480 C.3     1  UNL1        0.0216
     27 C          64.0965   91.0537   10.8023 C.3     1  UNL1        0.0217
     28 C          65.1041   92.0202   11.3509 C.3     1  UNL1        0.0792
     29 N          64.9386   92.5702   12.7366 N.am    1  UNL1       -0.2720
     30 C          64.8069   91.6367   13.9033 C.2     1  UNL1        0.4019
     31 O          64.8407   90.1532   13.6843 O.2     1  UNL1       -0.2264
     32 H          64.9164   93.5439   12.8803 H       1  UNL1        0.1527
     33 O          64.6414   92.1867   15.2890 O.3     1  UNL1       -0.4291
     34 C          65.8207   92.2585   16.2132 C.3     1  UNL1        0.2447
     35 C          67.1896   92.5284   15.6627 C.ar    1  UNL1        0.0714
     36 C          67.8443   91.7960   14.5292 C.ar    1  UNL1        0.1053
     37 N          69.2036   92.3931   14.3150 N.ar    1  UNL1       -0.2350
     38 C          69.3891   93.4945   15.3163 C.ar    1  UNL1        0.1343
     39 S          68.1443   93.5781   16.1492 S.2     1  UNL1       -0.0652
     40 C          66.2770   92.4366   10.5138 C.3     1  UNL1        0.0460
     41 C          66.4861   93.8847   10.1832 C.ar    1  UNL1       -0.0205
     42 C          67.3810   94.2722    9.0434 C.ar    1  UNL1       -0.0042
     43 C          67.5901   95.7202    8.7128 C.ar    1  UNL1       -0.0003
     44 C          66.9043   96.7809    9.5220 C.ar    1  UNL1       -0.0000
     45 C          66.0094   96.3934   10.6618 C.ar    1  UNL1       -0.0003
     46 C          65.8003   94.9454   10.9923 C.ar    1  UNL1       -0.0042
     47 C          60.3097   90.1764   10.8024 C.3     1  UNL1        0.0459
     48 C          59.9975   89.2069    9.7012 C.ar    1  UNL1       -0.0205
     49 C          59.7906   89.7036    8.3011 C.ar    1  UNL1       -0.0042
     50 C          59.4784   88.7341    7.1999 C.ar    1  UNL1       -0.0003
     51 C          59.3730   87.2680    7.4988 C.ar    1  UNL1       -0.0000
     52 C          59.5799   86.7713    8.8990 C.ar    1  UNL1       -0.0003
     53 C          59.8922   87.7408   10.0002 C.ar    1  UNL1       -0.0042
@<TRIPOS>BOND
     1    23    24    1
     2    24    25    1
     3    24    18    1
     4    18    19   ar
     5    19    20   ar
     6    20    17    1
     7    17     6    1
     8     6     7    1
     9     6     8   am
    10     8     9    2
    11     8    10   am
    12    10    11    1
    13    11    12    1
    14    12    13    1
    15    12    14    1
    16    14    15    1
    17    15     2    1
    18     2     3    2
    19     2     4   am
    20     4     1    1
    21     1    26    1
    22    26    27    1
    23    28    27    1
    24    28    40    1
    25    40    41    1
    26    41    42   ar
    27    42    43   ar
    28    43    44   ar
    29    44    45   ar
    30    45    46   ar
    31    28    29    1
    32    29    30   am
    33    30    31    2
    34    30    33    1
    35    33    34    1
    36    34    35    1
    37    35    36   ar
    38    36    37   ar
    39    37    38   ar
    40    38    39   ar
    41     1    47    1
    42    47    48    1
    43    48    49   ar
    44    49    50   ar
    45    50    51   ar
    46    51    52   ar
    47    52    53   ar
    48    20    21   ar
    49    21    22   ar
    50    22    18   ar
    51    15    10    1
    52    46    41   ar
    53    39    35   ar
    54    53    48   ar
    55    13    16    1
    56     4     5    1
    57    29    32    1
@<TRIPOS>MOLECULE
*****
 53 57 0 0 0
SMALL
GASTEIGER

@<TRIPOS>ATOM
      1 C          62.8624   84.0803   11.1940 C.3     1  UNL1        0.0760
      2 C          63.7284   85.0557   13.4410 C.2     1  UNL1        0.2407
      3 O          64.8960   84.1150   13.3994 O.2     1  UNL1       -0.2733
      4 N          62.7116   85.0384   12.3383 N.am    1  UNL1       -0.3043
      5 H          61.9452   85.6558   12.3655 H       1  UNL1        0.1494
      6 N          63.4766   89.8035   13.2627 N.am    1  UNL1       -0.2566
      7 C          63.5393   90.6021   11.9946 C.3     1  UNL1        0.1168
      8 C          63.5651   88.3069   13.2117 C.2     1  UNL1        0.3079
      9 O          63.7162   87.6091   11.8925 O.2     1  UNL1       -0.2523
     10 N          63.5024   87.5083   14.4798 N.am    1  UNL1       -0.2547
     11 C          63.3537   88.0637   15.8653 C.3     1  UNL1        0.1245
     12 C          63.3369   86.9126   16.8269 C.3     1  UNL1        0.1325
     13 O          63.2049   87.0112   18.3177 O.3     1  UNL1       -0.3826
     14 C          63.4752   85.6457   16.0357 C.3     1  UNL1        0.0602
     15 C          63.5775   86.0138   14.5852 C.3     1  UNL1        0.1555
     16 H          63.1307   87.9436   18.5748 H       1  UNL1        0.2104
     17 C          63.3255   90.5013   14.5819 C.3     1  UNL1        0.1413
     18 C          66.6516   92.3126   15.4312 C.ar    1  UNL1        0.0875
     19 N          65.8181   91.4646   14.5169 N.ar    1  UNL1       -0.2453
     20 C          64.4719   91.2820   15.1530 C.ar    1  UNL1        0.0858
     21 C          64.4735   92.0172   16.4604 C.ar    1  UNL1        0.0530
     22 S          65.8206   92.6543   16.6324 S.2     1  UNL1       -0.0705
     23 C          68.6767   93.8276   16.0260 C.3     1  UNL1        0.0069
     24 C          68.0675   92.7435   15.1872 C.3     1  UNL1        0.0465
     25 C          68.8742   92.0903   14.1044 C.3     1  UNL1        0.0069
     26 C          62.3667   84.4576    9.8295 C.3     1  UNL1        0.0216
     27 C          62.5416   85.8610    9.3297 C.3     1  UNL1        0.0217
     28 C          61.3994   86.8307    9.4022 C.3     1  UNL1        0.0792
     29 N          61.0330   87.6492    8.1998 N.am    1  UNL1       -0.2720
     30 C          59.6436   87.5778    7.6390 C.2     1  UNL1        0.4019
     31 O          58.6206   86.6880    8.2806 O.2     1  UNL1       -0.2264
     32 H          61.7044   88.2332    7.7787 H       1  UNL1        0.1527
     33 O          59.2772   88.3963    6.4365 O.3     1  UNL1       -0.4291
     34 C          58.8756   89.8322    6.6007 C.3     1  UNL1        0.2447
     35 C          59.1343   90.8142    5.4967 C.ar    1  UNL1        0.0714
     36 C          58.0988   91.6333    4.7847 C.ar    1  UNL1        0.1053
     37 N          58.7984   92.4749    3.7589 N.ar    1  UNL1       -0.2350
     38 C          60.2663   92.1760    3.8370 C.ar    1  UNL1        0.1343
     39 S          60.4738   91.1496    4.9110 S.2     1  UNL1       -0.0652
     40 C          60.6237   86.9819   10.6771 C.3     1  UNL1        0.0460
     41 C          60.0852   88.3250   11.0726 C.ar    1  UNL1       -0.0205
     42 C          60.5309   89.5566   10.3416 C.ar    1  UNL1       -0.0042
     43 C          59.9924   90.8996   10.7371 C.ar    1  UNL1       -0.0003
     44 C          59.0082   91.0108   11.8636 C.ar    1  UNL1       -0.0000
     45 C          58.5626   89.7792   12.5946 C.ar    1  UNL1       -0.0003
     46 C          59.1011   88.4363   12.1991 C.ar    1  UNL1       -0.0042
     47 C          63.5091   82.7448   11.4143 C.3     1  UNL1        0.0459
     48 C          62.8302   81.7144   12.2672 C.ar    1  UNL1       -0.0205
     49 C          62.9770   80.2573   11.9427 C.ar    1  UNL1       -0.0042
     50 C          62.2981   79.2269   12.7956 C.ar    1  UNL1       -0.0003
     51 C          61.4725   79.6536   13.9730 C.ar    1  UNL1       -0.0000
     52 C          61.3257   81.1107   14.2975 C.ar    1  UNL1       -0.0003
     53 C          62.0045   82.1411   13.4446 C.ar    1  UNL1       -0.0042
@<TRIPOS>BOND
     1    23    24    1
     2    24    25    1
     3    24    18    1
     4    18    19   ar
     5    19    20   ar
     6    20    17    1
     7    17     6    1
     8     6     7    1
     9     6     8   am
    10     8     9    2
    11     8    10   am
    12    10    11    1
    13    11    12    1
    14    12    13    1
    15    12    14    1
    16    14    15    1
    17    15     2    1
    18     2     3    2
    19     2     4   am
    20     4     1    1
    21     1    26    1
    22    26    27    1
    23    28    27    1
    24    28    40    1
    25    40    41    1
    26    41    42   ar
    27    42    43   ar
    28    43    44   ar
    29    44    45   ar
    30    45    46   ar
    31    28    29    1
    32    29    30   am
    33    30    31    2
    34    30    33    1
    35    33    34    1
    36    34    35    1
    37    35    36   ar
    38    36    37   ar
    39    37    38   ar
    40    38    39   ar
    41     1    47    1
    42    47    48    1
    43    48    49   ar
    44    49    50   ar
    45    50    51   ar
    46    51    52   ar
    47    52    53   ar
    48    20    21   ar
    49    21    22   ar
    50    22    18   ar
    51    15    10    1
    52    46    41   ar
    53    39    35   ar
    54    53    48   ar
    55    13    16    1
    56     4     5    1
    57    29    32    1
@<TRIPOS>MOLECULE
*****
 53 57 0 0 0
SMALL
GASTEIGER

@<TRIPOS>ATOM
      1 C          65.7454   90.8937   13.9822 C.3     1  UNL1        0.0760
      2 C          63.9839   89.6166   15.4023 C.2     1  UNL1        0.2407
      3 O          63.1351   90.8520   15.4604 O.2     1  UNL1       -0.2733
      4 N          65.2891   89.6374   14.6632 N.am    1  UNL1       -0.3043
      5 H          65.8462   88.8266   14.6251 H       1  UNL1        0.1494
      6 N          63.2634   85.3350   13.4569 N.am    1  UNL1       -0.2566
      7 C          63.4683   85.0261   12.0035 C.3     1  UNL1        0.1168
      8 C          63.5187   86.7202   13.9727 C.2     1  UNL1        0.3079
      9 O          63.9790   87.7966   13.0348 O.2     1  UNL1       -0.2523
     10 N          63.3138   87.0290   15.4261 N.am    1  UNL1       -0.2547
     11 C          62.8591   86.0608   16.4777 C.3     1  UNL1        0.1245
     12 C          62.7919   86.7937   17.7847 C.3     1  UNL1        0.1325
     13 O          62.3832   86.2082   19.1038 O.3     1  UNL1       -0.3826
     14 C          63.2051   88.2149   17.5409 C.3     1  UNL1        0.0602
     15 C          63.5276   88.3604   16.0833 C.3     1  UNL1        0.1555
     16 H          62.1648   85.2703   18.9875 H       1  UNL1        0.2104
     17 C          62.8030   84.2585   14.3948 C.3     1  UNL1        0.1413
     18 C          62.5164   80.9022   12.4667 C.ar    1  UNL1        0.0875
     19 N          63.0320   82.3059   12.5838 N.ar    1  UNL1       -0.2453
     20 C          62.5282   82.8784   13.8755 C.ar    1  UNL1        0.0858
     21 C          61.7013   81.8286   14.5566 C.ar    1  UNL1        0.0530
     22 S          61.6940   80.6071   13.6860 S.2     1  UNL1       -0.0705
     23 C          63.1603   80.4961    9.9826 C.3     1  UNL1        0.0069
     24 C          62.7775   79.9590   11.3299 C.3     1  UNL1        0.0465
     25 C          62.6557   78.4789   11.5403 C.3     1  UNL1        0.0069
     26 C          64.7361   91.8648   13.4454 C.3     1  UNL1        0.0216
     27 C          63.8148   91.4524   12.3359 C.3     1  UNL1        0.0217
     28 C          63.9105   92.1180   10.9950 C.3     1  UNL1        0.0792
     29 N          63.1471   91.5662    9.8277 N.am    1  UNL1       -0.2720
     30 C          61.9672   90.6694   10.0595 C.2     1  UNL1        0.4019
     31 O          61.5509   90.3243   11.4586 O.2     1  UNL1       -0.2264
     32 H          63.4203   91.7927    8.9094 H       1  UNL1        0.1527
     33 O          61.2038   90.1176    8.8921 O.3     1  UNL1       -0.4291
     34 C          60.1232   89.1015    9.1154 C.3     1  UNL1        0.2447
     35 C          60.2722   87.7147    8.5637 C.ar    1  UNL1        0.0714
     36 C          59.3237   87.0337    7.6221 C.ar    1  UNL1        0.1053
     37 N          59.8611   85.6634    7.3332 N.ar    1  UNL1       -0.2350
     38 C          61.1419   85.4975    8.0962 C.ar    1  UNL1        0.1343
     39 S          61.3959   86.7652    8.8567 S.2     1  UNL1       -0.0652
     40 C          64.7696   93.3352   10.8216 C.3     1  UNL1        0.0460
     41 C          66.1570   93.2013   10.2671 C.ar    1  UNL1       -0.0205
     42 C          66.7276   94.2869    9.4035 C.ar    1  UNL1       -0.0042
     43 C          68.1149   94.1529    8.8490 C.ar    1  UNL1       -0.0003
     44 C          68.9316   92.9333    9.1583 C.ar    1  UNL1       -0.0000
     45 C          68.3610   91.8477   10.0219 C.ar    1  UNL1       -0.0003
     46 C          66.9737   91.9817   10.5763 C.ar    1  UNL1       -0.0042
     47 C          67.2111   91.1787   13.8380 C.3     1  UNL1        0.0459
     48 C          67.8588   92.2272   14.6930 C.ar    1  UNL1       -0.0205
     49 C          67.4215   93.6580   14.5854 C.ar    1  UNL1       -0.0042
     50 C          68.0693   94.7066   15.4404 C.ar    1  UNL1       -0.0003
     51 C          69.1543   94.3243   16.4029 C.ar    1  UNL1       -0.0000
     52 C          69.5917   92.8935   16.5105 C.ar    1  UNL1       -0.0003
     53 C          68.9439   91.8450   15.6556 C.ar    1  UNL1       -0.0042
@<TRIPOS>BOND
     1    23    24    1
     2    24    25    1
     3    24    18    1
     4    18    19   ar
     5    19    20   ar
     6    20    17    1
     7    17     6    1
     8     6     7    1
     9     6     8   am
    10     8     9    2
    11     8    10   am
    12    10    11    1
    13    11    12    1
    14    12    13    1
    15    12    14    1
    16    14    15    1
    17    15     2    1
    18     2     3    2
    19     2     4   am
    20     4     1    1
    21     1    26    1
    22    26    27    1
    23    28    27    1
    24    28    40    1
    25    40    41    1
    26    41    42   ar
    27    42    43   ar
    28    43    44   ar
    29    44    45   ar
    30    45    46   ar
    31    28    29    1
    32    29    30   am
    33    30    31    2
    34    30    33    1
    35    33    34    1
    36    34    35    1
    37    35    36   ar
    38    36    37   ar
    39    37    38   ar
    40    38    39   ar
    41     1    47    1
    42    47    48    1
    43    48    49   ar
    44    49    50   ar
    45    50    51   ar
    46    51    52   ar
    47    52    53   ar
    48    20    21   ar
    49    21    22   ar
    50    22    18   ar
    51    15    10    1
    52    46    41   ar
    53    39    35   ar
    54    53    48   ar
    55    13    16    1
    56     4     5    1
    57    29    32    1
@<TRIPOS>MOLECULE
*****
 53 57 0 0 0
SMALL
GASTEIGER

@<TRIPOS>ATOM
      1 C          62.1117   86.7887   12.0416 C.3     1  UNL1        0.0760
      2 C          62.5104   89.3544   12.1306 C.2     1  UNL1        0.2407
      3 O          61.2262   89.5278   12.8859 O.2     1  UNL1       -0.2733
      4 N          62.9532   87.9848   11.7084 N.am    1  UNL1       -0.3043
      5 H          63.7961   87.8710   11.2126 H       1  UNL1        0.1494
      6 N          65.2335   91.9210   15.0689 N.am    1  UNL1       -0.2566
      7 C          65.3852   91.6413   16.5347 C.3     1  UNL1        0.1168
      8 C          64.3487   91.0505   14.2268 C.2     1  UNL1        0.3079
      9 O          63.6155   89.9000   14.8507 O.2     1  UNL1       -0.2523
     10 N          64.1969   91.3302   12.7610 N.am    1  UNL1       -0.2547
     11 C          64.8635   92.4386   12.0013 C.3     1  UNL1        0.1245
     12 C          64.4305   92.3441   10.5682 C.3     1  UNL1        0.1325
     13 O          64.8569   93.2562    9.4565 O.3     1  UNL1       -0.3826
     14 C          63.4964   91.1772   10.4423 C.3     1  UNL1        0.0602
     15 C          63.3520   90.5506   11.7974 C.3     1  UNL1        0.1555
     16 H          65.4639   93.9281    9.8043 H       1  UNL1        0.2104
     17 C          65.9667   93.0715   14.4451 C.3     1  UNL1        0.1413
     18 C          67.9859   92.9758   11.1317 C.ar    1  UNL1        0.0875
     19 N          66.8697   93.5242   11.9703 N.ar    1  UNL1       -0.2453
     20 C          66.9048   92.8304   13.2997 C.ar    1  UNL1        0.0858
     21 C          68.0427   91.8534   13.2828 C.ar    1  UNL1        0.0530
     22 S          68.7110   91.9432   11.9429 S.2     1  UNL1       -0.0705
     23 C          67.9889   94.7724    9.2549 C.3     1  UNL1        0.0069
     24 C          68.3187   93.3878    9.7283 C.3     1  UNL1        0.0465
     25 C          68.9813   92.4152    8.7983 C.3     1  UNL1        0.0069
     26 C          60.7517   86.6341   11.4280 C.3     1  UNL1        0.0216
     27 C          60.0786   87.8127   10.7895 C.3     1  UNL1        0.0217
     28 C          59.9717   87.8968    9.2956 C.3     1  UNL1        0.0792
     29 N          60.1944   89.2072    8.6003 N.am    1  UNL1       -0.2720
     30 C          59.4937   89.4982    7.3063 C.2     1  UNL1        0.4019
     31 O          58.5703   88.4790    6.7077 O.2     1  UNL1       -0.2264
     32 H          60.8005   89.8761    8.9933 H       1  UNL1        0.1527
     33 O          59.7164   90.8086    6.6111 O.3     1  UNL1       -0.4291
     34 C          59.2564   90.9942    5.1955 C.3     1  UNL1        0.2447
     35 C          60.1517   91.6678    4.1982 C.ar    1  UNL1        0.0714
     36 C          61.6231   91.4288    4.0315 C.ar    1  UNL1        0.1053
     37 N          62.1136   92.3120    2.9227 N.ar    1  UNL1       -0.2350
     38 C          60.9453   93.0969    2.4041 C.ar    1  UNL1        0.1343
     39 S          59.7328   92.6988    3.1924 S.2     1  UNL1       -0.0652
     40 C          59.6421   86.6706    8.4971 C.3     1  UNL1        0.0460
     41 C          60.7375   85.8949    7.8272 C.ar    1  UNL1       -0.0205
     42 C          62.1225   85.9032    8.4029 C.ar    1  UNL1       -0.0042
     43 C          63.2178   85.1275    7.7331 C.ar    1  UNL1       -0.0003
     44 C          62.9280   84.3435    6.4876 C.ar    1  UNL1       -0.0000
     45 C          61.5429   84.3352    5.9119 C.ar    1  UNL1       -0.0003
     46 C          60.4477   85.1108    6.5817 C.ar    1  UNL1       -0.0042
     47 C          62.6302   85.7470   12.9883 C.3     1  UNL1        0.0459
     48 C          62.8251   84.3362   12.5176 C.ar    1  UNL1       -0.0205
     49 C          62.4157   83.1898   13.3940 C.ar    1  UNL1       -0.0042
     50 C          62.6107   81.7790   12.9233 C.ar    1  UNL1       -0.0003
     51 C          63.2151   81.5146   11.5762 C.ar    1  UNL1       -0.0000
     52 C          63.6245   82.6610   10.6997 C.ar    1  UNL1       -0.0003
     53 C          63.4295   84.0718   11.1704 C.ar    1  UNL1       -0.0042
@<TRIPOS>BOND
     1    23    24    1
     2    24    25    1
     3    24    18    1
     4    18    19   ar
     5    19    20   ar
     6    20    17    1
     7    17     6    1
     8     6     7    1
     9     6     8   am
    10     8     9    2
    11     8    10   am
    12    10    11    1
    13    11    12    1
    14    12    13    1
    15    12    14    1
    16    14    15    1
    17    15     2    1
    18     2     3    2
    19     2     4   am
    20     4     1    1
    21     1    26    1
    22    26    27    1
    23    28    27    1
    24    28    40    1
    25    40    41    1
    26    41    42   ar
    27    42    43   ar
    28    43    44   ar
    29    44    45   ar
    30    45    46   ar
    31    28    29    1
    32    29    30   am
    33    30    31    2
    34    30    33    1
    35    33    34    1
    36    34    35    1
    37    35    36   ar
    38    36    37   ar
    39    37    38   ar
    40    38    39   ar
    41     1    47    1
    42    47    48    1
    43    48    49   ar
    44    49    50   ar
    45    50    51   ar
    46    51    52   ar
    47    52    53   ar
    48    20    21   ar
    49    21    22   ar
    50    22    18   ar
    51    15    10    1
    52    46    41   ar
    53    39    35   ar
    54    53    48   ar
    55    13    16    1
    56     4     5    1
    57    29    32    1
