@<TRIPOS>MOLECULE
*****
 47 52 0 0 0
SMALL
GASTEIGER

@<TRIPOS>ATOM
      1 C          64.5123   96.0963   -2.5973 C.ar    1  UNL1        0.1721
      2 C          65.0306   95.6788   -1.2530 C.ar    1  UNL1        0.0360
      3 C          64.1345   94.9478   -0.2977 C.ar    1  UNL1       -0.0119
      4 C          62.7202   94.6343   -0.6865 C.ar    1  UNL1       -0.0000
      5 C          62.2019   95.0518   -2.0307 C.ar    1  UNL1        0.0374
      6 C          63.0979   95.7828   -2.9861 C.ar    1  UNL1        0.1718
      7 C          61.8241   93.9033    0.2689 C.3     1  UNL1        0.1245
      8 N          62.3424   93.4858    1.6131 N.am    1  UNL1       -0.2523
      9 C          63.7569   93.7993    2.0020 C.2     1  UNL1        0.2342
     10 O          64.2752   93.3818    3.3462 O.2     1  UNL1       -0.2742
     11 C          64.6529   94.5303    1.0466 C.3     1  UNL1        0.1118
     12 C          60.4098   93.5898   -0.1200 C.ar    1  UNL1        0.0003
     13 C          59.3688   94.6696   -0.0974 C.ar    1  UNL1       -0.0015
     14 C          57.9544   94.3561   -0.4862 C.ar    1  UNL1        0.0111
     15 C          57.5810   92.9628   -0.8977 C.ar    1  UNL1        0.0577
     16 CL         56.1665   92.6493   -1.2866 Cl      1  UNL1       -0.0822
     17 C          58.6219   91.8830   -0.9204 C.ar    1  UNL1        0.0111
     18 C          60.0363   92.1965   -0.5315 C.ar    1  UNL1       -0.0015
     19 C          61.4464   92.7548    2.5685 C.ar    1  UNL1        0.0545
     20 C          60.0156   93.1764    2.7267 C.ar    1  UNL1        0.0162
     21 C          59.1196   92.4454    3.6821 C.ar    1  UNL1        0.0158
     22 C          59.6543   91.2928    4.4792 C.ar    1  UNL1        0.0480
     23 C          61.0851   90.8711    4.3210 C.ar    1  UNL1        0.0158
     24 C          61.9812   91.6021    3.3656 C.ar    1  UNL1        0.0162
     25 N          58.7582   90.5618    5.4346 N.pl3   1  UNL1       -0.3058
     26 C          57.5075   91.2171    5.9405 C.3     1  UNL1        0.1122
     27 C          59.1130   89.1753    5.8840 C.3     1  UNL1        0.0908
     28 C          59.8806   88.9729    7.1568 C.3     1  UNL1        0.0199
     29 C          60.2850   90.1564    7.9850 C.3     1  UNL1        0.0031
     30 C          61.0526   89.9540    9.2578 C.3     1  UNL1        0.0160
     31 C          61.4158   88.5681    9.7023 C.3     1  UNL1        0.0580
     32 C          61.0114   87.3847    8.8740 C.3     1  UNL1        0.0160
     33 C          60.2438   87.5871    7.6013 C.3     1  UNL1        0.0031
     34 N          62.1833   88.3657   10.9750 N.3     1  UNL1       -0.2649
     35 C          62.7128   89.5502   11.7280 C.3     1  UNL1        0.0939
     36 C          63.4803   89.3478   13.0007 C.3     1  UNL1        0.1068
     37 N          63.7185   87.9609   13.5205 N.am    1  UNL1       -0.3018
     38 C          63.1890   86.7766   12.7675 C.2     1  UNL1        0.2389
     39 O          63.4272   85.3898   13.2873 O.2     1  UNL1       -0.2736
     40 C          62.4215   86.9790   11.4948 C.3     1  UNL1        0.1584
     41 H          64.2223   87.8281   14.3558 H       1  UNL1        0.1495
     42 C          65.8092   96.1836   -4.8467 C.3     1  UNL1        0.2526
     43 O          65.4083   96.8273   -3.5526 O.3     1  UNL1       -0.4684
     44 O          62.5795   96.2003   -4.3304 O.3     1  UNL1       -0.4761
     45 C          61.7897   95.2342   -5.1628 C.3     1  UNL1        0.1663
     46 C          62.4945   94.1570   -5.9328 C.3     1  UNL1        0.0472
     47 C          60.2952   95.3453   -5.2252 C.3     1  UNL1        0.0472
@<TRIPOS>BOND
     1    42    43    1
     2    43     1    1
     3     1     2   ar
     4     2     3   ar
     5     3     4   ar
     6     4     5   ar
     7     5     6   ar
     8     6    44    1
     9    44    45    1
    10    45    46    1
    11    45    47    1
    12     4     7    1
    13     7    12    1
    14    12    13   ar
    15    13    14   ar
    16    14    15   ar
    17    15    16    1
    18    15    17   ar
    19    17    18   ar
    20     7     8    1
    21     8    19    1
    22    19    20   ar
    23    20    21   ar
    24    21    22   ar
    25    22    25    1
    26    25    26    1
    27    25    27    1
    28    28    27    1
    29    28    29    1
    30    29    30    1
    31    30    31    1
    32    31    34    1
    33    34    35    1
    34    35    36    1
    35    36    37    1
    36    37    38   am
    37    38    39    2
    38    38    40    1
    39    31    32    1
    40    32    33    1
    41    22    23   ar
    42    23    24   ar
    43     8     9   am
    44     9    10    2
    45     9    11    1
    46     6     1   ar
    47    18    12   ar
    48    24    19   ar
    49    11     3    1
    50    33    28    1
    51    40    34    1
    52    37    41    1
@<TRIPOS>MOLECULE
*****
 47 52 0 0 0
SMALL
GASTEIGER

@<TRIPOS>ATOM
      1 C          64.4982   95.8823   -2.7891 C.ar    1  UNL1        0.1721
      2 C          65.0382   95.5332   -1.4339 C.ar    1  UNL1        0.0360
      3 C          64.1549   94.8611   -0.4250 C.ar    1  UNL1       -0.0119
      4 C          62.7316   94.5381   -0.7711 C.ar    1  UNL1       -0.0000
      5 C          62.1916   94.8873   -2.1263 C.ar    1  UNL1        0.0374
      6 C          63.0749   95.5594   -3.1352 C.ar    1  UNL1        0.1718
      7 C          61.8483   93.8660    0.2379 C.3     1  UNL1        0.1245
      8 N          62.3883   93.5168    1.5930 N.am    1  UNL1       -0.2523
      9 C          63.8117   93.8398    1.9392 C.2     1  UNL1        0.2342
     10 O          64.3517   93.4906    3.2943 O.2     1  UNL1       -0.2742
     11 C          64.6950   94.5119    0.9302 C.3     1  UNL1        0.1118
     12 C          60.4250   93.5430   -0.1083 C.ar    1  UNL1        0.0003
     13 C          60.0385   92.1360   -0.4563 C.ar    1  UNL1       -0.0015
     14 C          58.6152   91.8131   -0.8025 C.ar    1  UNL1        0.0111
     15 C          57.5784   92.8970   -0.8006 C.ar    1  UNL1        0.0577
     16 CL         56.1550   92.5740   -1.1468 Cl      1  UNL1       -0.0822
     17 C          57.9649   94.3040   -0.4526 C.ar    1  UNL1        0.0111
     18 C          59.3882   94.6270   -0.1065 C.ar    1  UNL1       -0.0015
     19 C          61.5050   92.8447    2.6020 C.ar    1  UNL1        0.0545
     20 C          61.9832   91.6159    3.3171 C.ar    1  UNL1        0.0162
     21 C          61.0999   90.9438    4.3260 C.ar    1  UNL1        0.0158
     22 C          59.7384   91.5004    4.6199 C.ar    1  UNL1        0.0480
     23 C          59.2602   92.7293    3.9048 C.ar    1  UNL1        0.0158
     24 C          60.1435   93.4014    2.8958 C.ar    1  UNL1        0.0162
     25 N          58.8551   90.8283    5.6289 N.pl3   1  UNL1       -0.3058
     26 C          57.6264   90.0948    5.1795 C.3     1  UNL1        0.1122
     27 C          59.2007   90.8898    7.0873 C.3     1  UNL1        0.0908
     28 C          59.8788   89.7258    7.7471 C.3     1  UNL1        0.0199
     29 C          59.6552   88.3357    7.2297 C.3     1  UNL1        0.0031
     30 C          60.3333   87.1717    7.8894 C.3     1  UNL1        0.0160
     31 C          61.2351   87.3979    9.0666 C.3     1  UNL1        0.0580
     32 C          61.4587   88.7879    9.5840 C.3     1  UNL1        0.0160
     33 C          60.7805   89.9519    8.9242 C.3     1  UNL1        0.0031
     34 N          61.9132   86.2339    9.7264 N.3     1  UNL1       -0.2649
     35 C          62.7262   85.2763    8.9065 C.3     1  UNL1        0.0939
     36 C          63.4044   84.1123    9.5663 C.3     1  UNL1        0.1068
     37 N          63.2695   83.9060   11.0460 N.am    1  UNL1       -0.3018
     38 C          62.4566   84.8636   11.8658 C.2     1  UNL1        0.2389
     39 O          62.3217   84.6572   13.3454 O.2     1  UNL1       -0.2736
     40 C          61.7784   86.0275   11.2060 C.3     1  UNL1        0.1584
     41 H          63.7146   83.1420   11.4790 H       1  UNL1        0.1495
     42 C          65.7038   95.8647   -5.0904 C.3     1  UNL1        0.2526
     43 O          65.3815   96.5545   -3.7980 O.3     1  UNL1       -0.4684
     44 O          62.5349   95.9086   -4.4904 O.3     1  UNL1       -0.4761
     45 C          61.8837   94.8523   -5.3332 C.3     1  UNL1        0.1663
     46 C          60.3935   94.6835   -5.3051 C.3     1  UNL1        0.0472
     47 C          62.7227   93.9649   -6.2042 C.3     1  UNL1        0.0472
@<TRIPOS>BOND
     1    42    43    1
     2    43     1    1
     3     1     2   ar
     4     2     3   ar
     5     3     4   ar
     6     4     5   ar
     7     5     6   ar
     8     6    44    1
     9    44    45    1
    10    45    46    1
    11    45    47    1
    12     4     7    1
    13     7    12    1
    14    12    13   ar
    15    13    14   ar
    16    14    15   ar
    17    15    16    1
    18    15    17   ar
    19    17    18   ar
    20     7     8    1
    21     8    19    1
    22    19    20   ar
    23    20    21   ar
    24    21    22   ar
    25    22    25    1
    26    25    26    1
    27    25    27    1
    28    28    27    1
    29    28    29    1
    30    29    30    1
    31    30    31    1
    32    31    34    1
    33    34    35    1
    34    35    36    1
    35    36    37    1
    36    37    38   am
    37    38    39    2
    38    38    40    1
    39    31    32    1
    40    32    33    1
    41    22    23   ar
    42    23    24   ar
    43     8     9   am
    44     9    10    2
    45     9    11    1
    46     6     1   ar
    47    18    12   ar
    48    24    19   ar
    49    11     3    1
    50    33    28    1
    51    40    34    1
    52    37    41    1
@<TRIPOS>MOLECULE
*****
 47 52 0 0 0
SMALL
GASTEIGER

@<TRIPOS>ATOM
      1 C          63.6431   83.8274   13.0819 C.ar    1  UNL1        0.1721
      2 C          63.0611   85.1803   13.3661 C.ar    1  UNL1        0.0360
      3 C          62.4261   85.9709   12.2607 C.ar    1  UNL1       -0.0119
      4 C          62.3731   85.4085   10.8711 C.ar    1  UNL1       -0.0000
      5 C          62.9551   84.0555   10.5870 C.ar    1  UNL1        0.0374
      6 C          63.5901   83.2650   11.6924 C.ar    1  UNL1        0.1718
      7 C          61.7382   86.1990    9.7658 C.3     1  UNL1        0.1245
      8 N          61.1562   87.5519   10.0499 N.am    1  UNL1       -0.2523
      9 C          61.2091   88.1144   11.4395 C.2     1  UNL1        0.2342
     10 O          60.6271   89.4673   11.7236 O.2     1  UNL1       -0.2742
     11 C          61.8441   87.3239   12.5449 C.3     1  UNL1        0.1118
     12 C          61.6852   85.6366    8.3762 C.ar    1  UNL1        0.0003
     13 C          60.3609   85.4028    7.7117 C.ar    1  UNL1       -0.0015
     14 C          60.3079   84.8404    6.3222 C.ar    1  UNL1        0.0111
     15 C          61.5792   84.5117    5.5971 C.ar    1  UNL1        0.0577
     16 CL         61.5262   83.9493    4.2075 Cl      1  UNL1       -0.0822
     17 C          62.9035   84.7455    6.2615 C.ar    1  UNL1        0.0111
     18 C          62.9565   85.3080    7.6512 C.ar    1  UNL1       -0.0015
     19 C          60.5212   88.3424    8.9445 C.ar    1  UNL1        0.0545
     20 C          59.3408   87.7847    8.2059 C.ar    1  UNL1        0.0162
     21 C          58.7058   88.5752    7.1005 C.ar    1  UNL1        0.0158
     22 C          59.2512   89.9235    6.7337 C.ar    1  UNL1        0.0480
     23 C          60.4317   90.4813    7.4723 C.ar    1  UNL1        0.0158
     24 C          61.0667   89.6908    8.5777 C.ar    1  UNL1        0.0162
     25 N          58.6163   90.7140    5.6283 N.pl3   1  UNL1       -0.3058
     26 C          57.5085   90.1116    4.8161 C.3     1  UNL1        0.1122
     27 C          59.0892   92.1071    5.3352 C.3     1  UNL1        0.0908
     28 C          59.9488   92.3702    4.1344 C.3     1  UNL1        0.0199
     29 C          61.3429   91.8196    4.0749 C.3     1  UNL1        0.0031
     30 C          62.2024   92.0827    2.8741 C.3     1  UNL1        0.0160
     31 C          61.6679   92.8964    1.7328 C.3     1  UNL1        0.0580
     32 C          60.2739   93.4469    1.7924 C.3     1  UNL1        0.0160
     33 C          59.4143   93.1838    2.9932 C.3     1  UNL1        0.0031
     34 N          62.5275   93.1595    0.5320 N.3     1  UNL1       -0.2649
     35 C          63.9886   93.4519    0.7051 C.3     1  UNL1        0.0939
     36 C          64.8481   93.7150   -0.4957 C.3     1  UNL1        0.1068
     37 N          64.2467   93.6857   -1.8695 N.am    1  UNL1       -0.3018
     38 C          62.7857   93.3933   -2.0426 C.2     1  UNL1        0.2389
     39 O          62.1842   93.3640   -3.4164 O.2     1  UNL1       -0.2736
     40 C          61.9261   93.1302   -0.8418 C.3     1  UNL1        0.1584
     41 H          64.8108   93.8584   -2.6577 H       1  UNL1        0.1495
     42 C          64.0387   83.4212   15.6173 C.3     1  UNL1        0.2526
     43 O          64.2780   83.0369   14.1873 O.3     1  UNL1       -0.4684
     44 O          64.1721   81.9120   11.4082 O.3     1  UNL1       -0.4761
     45 C          63.2851   80.7026   11.3906 C.3     1  UNL1        0.1663
     46 C          62.6575   80.2142   12.6625 C.3     1  UNL1        0.0472
     47 C          63.0255   79.9815   10.1012 C.3     1  UNL1        0.0472
@<TRIPOS>BOND
     1    42    43    1
     2    43     1    1
     3     1     2   ar
     4     2     3   ar
     5     3     4   ar
     6     4     5   ar
     7     5     6   ar
     8     6    44    1
     9    44    45    1
    10    45    46    1
    11    45    47    1
    12     4     7    1
    13     7    12    1
    14    12    13   ar
    15    13    14   ar
    16    14    15   ar
    17    15    16    1
    18    15    17   ar
    19    17    18   ar
    20     7     8    1
    21     8    19    1
    22    19    20   ar
    23    20    21   ar
    24    21    22   ar
    25    22    25    1
    26    25    26    1
    27    25    27    1
    28    28    27    1
    29    28    29    1
    30    29    30    1
    31    30    31    1
    32    31    34    1
    33    34    35    1
    34    35    36    1
    35    36    37    1
    36    37    38   am
    37    38    39    2
    38    38    40    1
    39    31    32    1
    40    32    33    1
    41    22    23   ar
    42    23    24   ar
    43     8     9   am
    44     9    10    2
    45     9    11    1
    46     6     1   ar
    47    18    12   ar
    48    24    19   ar
    49    11     3    1
    50    33    28    1
    51    40    34    1
    52    37    41    1
@<TRIPOS>MOLECULE
*****
 47 52 0 0 0
SMALL
GASTEIGER

@<TRIPOS>ATOM
      1 C          64.5430   95.4164   -3.7358 C.ar    1  UNL1        0.1721
      2 C          65.0932   95.0611   -2.3864 C.ar    1  UNL1        0.0360
      3 C          64.1838   94.5160   -1.3254 C.ar    1  UNL1       -0.0119
      4 C          62.7241   94.3260   -1.6139 C.ar    1  UNL1       -0.0000
      5 C          62.1739   94.6813   -2.9633 C.ar    1  UNL1        0.0374
      6 C          63.0833   95.2265   -4.0243 C.ar    1  UNL1        0.1718
      7 C          61.8147   93.7808   -0.5529 C.3     1  UNL1        0.1245
      8 N          62.3649   93.4256    0.7965 N.am    1  UNL1       -0.2523
      9 C          63.8246   93.6155    1.0850 C.2     1  UNL1        0.2342
     10 O          64.3749   93.2602    2.4345 O.2     1  UNL1       -0.2742
     11 C          64.7341   94.1607    0.0241 C.3     1  UNL1        0.1118
     12 C          60.3550   93.5909   -0.8413 C.ar    1  UNL1        0.0003
     13 C          59.3970   94.7280   -0.6425 C.ar    1  UNL1       -0.0015
     14 C          57.9374   94.5381   -0.9309 C.ar    1  UNL1        0.0111
     15 C          57.4356   93.2111   -1.4182 C.ar    1  UNL1        0.0577
     16 CL         55.9758   93.0212   -1.7066 Cl      1  UNL1       -0.0822
     17 C          58.3935   92.0741   -1.6171 C.ar    1  UNL1        0.0111
     18 C          59.8532   92.2640   -1.3286 C.ar    1  UNL1       -0.0015
     19 C          61.4555   92.8804    1.8575 C.ar    1  UNL1        0.0545
     20 C          59.9703   93.0490    1.7315 C.ar    1  UNL1        0.0162
     21 C          59.0609   92.5038    2.7925 C.ar    1  UNL1        0.0158
     22 C          59.6366   91.7900    3.9795 C.ar    1  UNL1        0.0480
     23 C          61.1218   91.6214    4.1056 C.ar    1  UNL1        0.0158
     24 C          62.0312   92.1666    3.0446 C.ar    1  UNL1        0.0162
     25 N          58.7271   91.2448    5.0405 N.pl3   1  UNL1       -0.3058
     26 C          57.8581   92.1750    5.8338 C.3     1  UNL1        0.1122
     27 C          58.6868   89.7694    5.3081 C.3     1  UNL1        0.0908
     28 C          59.3880   89.2054    6.5082 C.3     1  UNL1        0.0199
     29 C          59.9769   90.1272    7.5347 C.3     1  UNL1        0.0031
     30 C          60.6781   89.5632    8.7348 C.3     1  UNL1        0.0160
     31 C          60.7904   88.0774    8.9084 C.3     1  UNL1        0.0580
     32 C          60.2015   87.1558    7.8819 C.3     1  UNL1        0.0160
     33 C          59.5003   87.7198    6.6818 C.3     1  UNL1        0.0031
     34 N          61.4916   87.5134   10.1085 N.3     1  UNL1       -0.2649
     35 C          62.2155   88.4273   11.0524 C.3     1  UNL1        0.0939
     36 C          62.9167   87.8633   12.2525 C.3     1  UNL1        0.1068
     37 N          62.8939   86.3855   12.5087 N.am    1  UNL1       -0.3018
     38 C          62.1700   85.4717   11.5648 C.2     1  UNL1        0.2389
     39 O          62.1472   83.9939   11.8211 O.2     1  UNL1       -0.2736
     40 C          61.4688   86.0357   10.3647 C.3     1  UNL1        0.1584
     41 H          63.3542   86.0153   13.2963 H       1  UNL1        0.1495
     42 C          65.2919   95.5205   -6.2214 C.3     1  UNL1        0.2526
     43 O          65.4525   95.9616   -4.7968 O.3     1  UNL1       -0.4684
     44 O          62.5330   95.5818   -5.3737 O.3     1  UNL1       -0.4761
     45 C          61.6346   94.6206   -6.0941 C.3     1  UNL1        0.1663
     46 C          62.1502   93.8536   -7.2756 C.3     1  UNL1        0.0472
     47 C          60.2205   94.4265   -5.6330 C.3     1  UNL1        0.0472
@<TRIPOS>BOND
     1    42    43    1
     2    43     1    1
     3     1     2   ar
     4     2     3   ar
     5     3     4   ar
     6     4     5   ar
     7     5     6   ar
     8     6    44    1
     9    44    45    1
    10    45    46    1
    11    45    47    1
    12     4     7    1
    13     7    12    1
    14    12    13   ar
    15    13    14   ar
    16    14    15   ar
    17    15    16    1
    18    15    17   ar
    19    17    18   ar
    20     7     8    1
    21     8    19    1
    22    19    20   ar
    23    20    21   ar
    24    21    22   ar
    25    22    25    1
    26    25    26    1
    27    25    27    1
    28    28    27    1
    29    28    29    1
    30    29    30    1
    31    30    31    1
    32    31    34    1
    33    34    35    1
    34    35    36    1
    35    36    37    1
    36    37    38   am
    37    38    39    2
    38    38    40    1
    39    31    32    1
    40    32    33    1
    41    22    23   ar
    42    23    24   ar
    43     8     9   am
    44     9    10    2
    45     9    11    1
    46     6     1   ar
    47    18    12   ar
    48    24    19   ar
    49    11     3    1
    50    33    28    1
    51    40    34    1
    52    37    41    1
@<TRIPOS>MOLECULE
*****
 47 52 0 0 0
SMALL
GASTEIGER

@<TRIPOS>ATOM
      1 C          63.8117   83.1400   12.2749 C.ar    1  UNL1        0.1721
      2 C          63.7115   83.1053   10.7787 C.ar    1  UNL1        0.0360
      3 C          62.9608   84.1816   10.0521 C.ar    1  UNL1       -0.0119
      4 C          62.3101   85.2925   10.8217 C.ar    1  UNL1       -0.0000
      5 C          62.4103   85.3272   12.3179 C.ar    1  UNL1        0.0374
      6 C          63.1611   84.2510   13.0445 C.ar    1  UNL1        0.1718
      7 C          61.5594   86.3688   10.0951 C.3     1  UNL1        0.1245
      8 N          61.4592   86.3341    8.5989 N.am    1  UNL1       -0.2523
      9 C          62.1098   85.2231    7.8292 C.2     1  UNL1        0.2342
     10 O          62.0097   85.1884    6.3330 O.2     1  UNL1       -0.2742
     11 C          62.8606   84.1468    8.5558 C.3     1  UNL1        0.1118
     12 C          60.9087   87.4798   10.8647 C.ar    1  UNL1        0.0003
     13 C          61.7399   88.6070   11.4020 C.ar    1  UNL1       -0.0015
     14 C          61.0893   89.7180   12.1716 C.ar    1  UNL1        0.0111
     15 C          59.6075   89.7019   12.4040 C.ar    1  UNL1        0.0577
     16 CL         58.9569   90.8129   13.1737 Cl      1  UNL1       -0.0822
     17 C          58.7763   88.5747   11.8668 C.ar    1  UNL1        0.0111
     18 C          59.4269   87.4636   11.0972 C.ar    1  UNL1       -0.0015
     19 C          60.7084   87.4104    7.8723 C.ar    1  UNL1        0.0545
     20 C          61.1641   88.8364    7.9655 C.ar    1  UNL1        0.0162
     21 C          60.4133   89.9127    7.2389 C.ar    1  UNL1        0.0158
     22 C          59.2068   89.5630    6.4191 C.ar    1  UNL1        0.0480
     23 C          58.7511   88.1369    6.3259 C.ar    1  UNL1        0.0158
     24 C          59.5019   87.0606    7.0525 C.ar    1  UNL1        0.0162
     25 N          58.4560   90.6392    5.6925 N.pl3   1  UNL1       -0.3058
     26 C          57.0859   90.3617    5.1489 C.3     1  UNL1        0.1122
     27 C          59.0755   91.9931    5.5096 C.3     1  UNL1        0.0908
     28 C          59.9335   92.2695    4.3107 C.3     1  UNL1        0.0199
     29 C          59.4141   93.1332    3.1997 C.3     1  UNL1        0.0031
     30 C          60.2722   93.4096    2.0008 C.3     1  UNL1        0.0160
     31 C          61.6496   92.8222    1.9129 C.3     1  UNL1        0.0580
     32 C          62.1690   91.9585    3.0238 C.3     1  UNL1        0.0160
     33 C          61.3109   91.6822    4.2227 C.3     1  UNL1        0.0031
     34 N          62.5077   93.0986    0.7139 N.3     1  UNL1       -0.2649
     35 C          63.9791   93.3362    0.8834 C.3     1  UNL1        0.0939
     36 C          64.8371   93.6126   -0.3155 C.3     1  UNL1        0.1068
     37 N          64.2238   93.6513   -1.6839 N.am    1  UNL1       -0.3018
     38 C          62.7525   93.4136   -1.8533 C.2     1  UNL1        0.2389
     39 O          62.1392   93.4523   -3.2217 O.2     1  UNL1       -0.2736
     40 C          61.8944   93.1372   -0.6544 C.3     1  UNL1        0.1584
     41 H          64.7869   93.8327   -2.4708 H       1  UNL1        0.1495
     42 C          63.8157   80.9405   13.6578 C.3     1  UNL1        0.2526
     43 O          64.5625   82.0637   13.0015 O.3     1  UNL1       -0.4684
     44 O          63.2612   84.2857   14.5408 O.3     1  UNL1       -0.4761
     45 C          64.0279   85.3841   15.2159 C.3     1  UNL1        0.1663
     46 C          65.3519   85.8232   14.6642 C.3     1  UNL1        0.0472
     47 C          63.4708   86.0433   16.4426 C.3     1  UNL1        0.0472
@<TRIPOS>BOND
     1    42    43    1
     2    43     1    1
     3     1     2   ar
     4     2     3   ar
     5     3     4   ar
     6     4     5   ar
     7     5     6   ar
     8     6    44    1
     9    44    45    1
    10    45    46    1
    11    45    47    1
    12     4     7    1
    13     7    12    1
    14    12    13   ar
    15    13    14   ar
    16    14    15   ar
    17    15    16    1
    18    15    17   ar
    19    17    18   ar
    20     7     8    1
    21     8    19    1
    22    19    20   ar
    23    20    21   ar
    24    21    22   ar
    25    22    25    1
    26    25    26    1
    27    25    27    1
    28    28    27    1
    29    28    29    1
    30    29    30    1
    31    30    31    1
    32    31    34    1
    33    34    35    1
    34    35    36    1
    35    36    37    1
    36    37    38   am
    37    38    39    2
    38    38    40    1
    39    31    32    1
    40    32    33    1
    41    22    23   ar
    42    23    24   ar
    43     8     9   am
    44     9    10    2
    45     9    11    1
    46     6     1   ar
    47    18    12   ar
    48    24    19   ar
    49    11     3    1
    50    33    28    1
    51    40    34    1
    52    37    41    1
