@<TRIPOS>MOLECULE
*****
 31 33 0 0 0
SMALL
GASTEIGER

@<TRIPOS>ATOM
      1 C          62.2342   88.2738   11.4653 C.ar    1  UNL1        0.0577
      2 C          63.1679   88.2872   12.6393 C.ar    1  UNL1        0.0462
      3 C          63.9891   89.5082   12.9304 C.ar    1  UNL1        0.1602
      4 F          64.9228   89.5216   14.1044 F       1  UNL1       -0.2027
      5 C          63.8766   90.7157   12.0478 C.ar    1  UNL1        0.1534
      6 C          62.9430   90.7023   10.8739 C.ar    1  UNL1        0.0351
      7 C          62.1217   89.4814   10.5826 C.ar    1  UNL1        0.0722
      8 CL         61.1880   89.4680    9.4087 Cl      1  UNL1       -0.0809
      9 S          64.6979   91.9367   12.3390 S.O2    1  UNL1        0.0772
     10 O          65.1618   91.9648   10.9128 O.2     1  UNL1       -0.1498
     11 O          64.2340   91.9085   13.7651 O.2     1  UNL1       -0.1498
     12 N          65.5191   93.1577   12.6302 N.pl3   1  UNL1       -0.1936
     13 H          65.3307   94.0015   12.1593 H       1  UNL1        0.1758
     14 C          66.6275   93.0930   13.6388 C.ar    1  UNL1        0.1786
     15 N          66.8164   94.0211   14.8020 N.ar    1  UNL1       -0.2214
     16 C          68.0473   93.5905   15.5434 C.ar    1  UNL1        0.1079
     17 C          68.6191   92.3963   14.8384 C.ar    1  UNL1        0.0588
     18 S          67.7417   92.0888   13.6613 S.2     1  UNL1       -0.0497
     19 N          61.4130   87.0528   11.1741 N.pl3   1  UNL1       -0.3319
     20 H          60.7265   87.0780   10.4689 H       1  UNL1        0.1468
     21 C          61.6376   85.7935   11.9574 C.3     1  UNL1        0.0894
     22 C          63.3443   83.9023   12.4681 C.3     1  UNL1        0.1166
     23 O          64.3433   82.8903   11.9908 O.3     1  UNL1       -0.3562
     24 C          64.6346   82.7575   10.5253 C.3     1  UNL1        0.1421
     25 C          63.9269   83.6366    9.5373 C.3     1  UNL1        0.0322
     26 C          62.9279   84.6486   10.0146 C.3     1  UNL1        0.0067
     27 C          62.6366   84.7814   11.4801 C.3     1  UNL1        0.0468
     28 C          62.1273   82.8573   13.8563 C.3     1  UNL1        0.0024
     29 C          63.0530   84.0351   13.9336 C.3     1  UNL1        0.0251
     30 C          63.9786   85.2129   14.0108 C.3     1  UNL1        0.0024
     31 C          62.7616   84.1679   15.3990 C.3     1  UNL1        0.0024
@<TRIPOS>BOND
     1    28    29    1
     2    29    30    1
     3    29    31    1
     4    22    29    1
     5    22    23    1
     6    23    24    1
     7    24    25    1
     8    25    26    1
     9    26    27    1
    10    27    21    1
    11    21    19    1
    12    19     1    1
    13     1     2   ar
    14     2     3   ar
    15     3     4    1
    16     3     5   ar
    17     5     9    1
    18     9    10    2
    19     9    11    2
    20     9    12    1
    21    12    14    1
    22    14    15   ar
    23    15    16   ar
    24    16    17   ar
    25    17    18   ar
    26     5     6   ar
    27     6     7   ar
    28     7     8    1
    29    27    22    1
    30     7     1   ar
    31    18    14   ar
    32    19    20    1
    33    12    13    1
@<TRIPOS>MOLECULE
*****
 31 33 0 0 0
SMALL
GASTEIGER

@<TRIPOS>ATOM
      1 C          63.8789   88.7476   15.0548 C.ar    1  UNL1        0.0577
      2 C          64.0831   87.8690   13.8563 C.ar    1  UNL1        0.0462
      3 C          63.8295   86.3939   13.9558 C.ar    1  UNL1        0.1602
      4 F          64.0337   85.5153   12.7573 F       1  UNL1       -0.2027
      5 C          63.3715   85.7975   15.2536 C.ar    1  UNL1        0.1534
      6 C          63.1672   86.6761   16.4521 C.ar    1  UNL1        0.0351
      7 C          63.4209   88.1511   16.3527 C.ar    1  UNL1        0.0722
      8 CL         63.2166   89.0297   17.5512 Cl      1  UNL1       -0.0809
      9 S          63.1178   84.3225   15.3530 S.O2    1  UNL1        0.0772
     10 O          64.5957   84.0669   15.3320 O.2     1  UNL1       -0.1498
     11 O          61.6400   84.5780   15.3741 O.2     1  UNL1       -0.1498
     12 N          62.8642   82.8473   15.4524 N.pl3   1  UNL1       -0.1936
     13 H          62.7465   82.4264   16.3346 H       1  UNL1        0.1758
     14 C          62.7900   82.0136   14.2077 C.ar    1  UNL1        0.1786
     15 N          62.7146   80.5165   14.1524 N.ar    1  UNL1       -0.2214
     16 C          62.6561   80.1082   12.7103 C.ar    1  UNL1        0.1079
     17 C          62.6954   81.3529   11.8742 C.ar    1  UNL1        0.0588
     18 S          62.7781   82.5306   12.7996 S.2     1  UNL1       -0.0497
     19 N          64.1325   90.2226   14.9554 N.pl3   1  UNL1       -0.3319
     20 H          63.4241   90.8614   15.1988 H       1  UNL1        0.1468
     21 C          65.4656   90.7244   14.4852 C.3     1  UNL1        0.0894
     22 C          66.7039   92.5182   13.0714 C.3     1  UNL1        0.1166
     23 O          66.7936   93.3638   11.8358 O.3     1  UNL1       -0.3562
     24 C          65.7348   93.2611   10.7782 C.3     1  UNL1        0.1421
     25 C          64.5863   92.3129   10.9563 C.3     1  UNL1        0.0322
     26 C          64.4966   91.4673   12.1919 C.3     1  UNL1        0.0067
     27 C          65.5554   91.5700   13.2495 C.3     1  UNL1        0.0468
     28 C          66.8965   93.5690   14.9041 C.3     1  UNL1        0.0024
     29 C          67.7627   92.6209   14.1290 C.3     1  UNL1        0.0251
     30 C          68.6288   91.6728   13.3539 C.3     1  UNL1        0.0024
     31 C          68.8214   92.7236   15.1866 C.3     1  UNL1        0.0024
@<TRIPOS>BOND
     1    28    29    1
     2    29    30    1
     3    29    31    1
     4    22    29    1
     5    22    23    1
     6    23    24    1
     7    24    25    1
     8    25    26    1
     9    26    27    1
    10    27    21    1
    11    21    19    1
    12    19     1    1
    13     1     2   ar
    14     2     3   ar
    15     3     4    1
    16     3     5   ar
    17     5     9    1
    18     9    10    2
    19     9    11    2
    20     9    12    1
    21    12    14    1
    22    14    15   ar
    23    15    16   ar
    24    16    17   ar
    25    17    18   ar
    26     5     6   ar
    27     6     7   ar
    28     7     8    1
    29    27    22    1
    30     7     1   ar
    31    18    14   ar
    32    19    20    1
    33    12    13    1
@<TRIPOS>MOLECULE
*****
 31 33 0 0 0
SMALL
GASTEIGER

@<TRIPOS>ATOM
      1 C          62.2103   88.4372   11.4463 C.ar    1  UNL1        0.0577
      2 C          63.1809   88.5762   12.5815 C.ar    1  UNL1        0.0462
      3 C          63.9913   89.8302   12.7261 C.ar    1  UNL1        0.1602
      4 F          64.9619   89.9692   13.8612 F       1  UNL1       -0.2027
      5 C          63.8310   90.9451   11.7355 C.ar    1  UNL1        0.1534
      6 C          62.8604   90.8061   10.6004 C.ar    1  UNL1        0.0351
      7 C          62.0500   89.5522   10.4558 C.ar    1  UNL1        0.0722
      8 CL         61.0794   89.4132    9.3206 Cl      1  UNL1       -0.0809
      9 S          64.6414   92.1990   11.8801 S.O2    1  UNL1        0.0772
     10 O          64.5823   92.0651   13.3730 O.2     1  UNL1       -0.1498
     11 O          64.7006   92.3330   10.3873 O.2     1  UNL1       -0.1498
     12 N          65.4518   93.4530   12.0248 N.pl3   1  UNL1       -0.1936
     13 H          65.3361   94.0252   12.8176 H       1  UNL1        0.1758
     14 C          66.4385   93.8351   10.9616 C.ar    1  UNL1        0.1786
     15 N          67.5542   92.9762   10.4444 N.ar    1  UNL1       -0.2214
     16 C          68.2880   93.7535    9.3921 C.ar    1  UNL1        0.1079
     17 C          67.6259   95.0928    9.2589 C.ar    1  UNL1        0.0588
     18 S          66.4828   95.1433   10.2290 S.2     1  UNL1       -0.0497
     19 N          61.3999   87.1833   11.3017 N.pl3   1  UNL1       -0.3319
     20 H          60.6536   87.1507   10.6605 H       1  UNL1        0.1468
     21 C          61.7266   85.9790   12.1341 C.3     1  UNL1        0.0894
     22 C          63.4107   84.0468   12.5589 C.3     1  UNL1        0.1166
     23 O          64.3503   83.0032   12.0317 O.3     1  UNL1       -0.3562
     24 C          64.5455   82.8482   10.5525 C.3     1  UNL1        0.1421
     25 C          63.8011   83.7367    9.6006 C.3     1  UNL1        0.0322
     26 C          62.8615   84.7803   10.1278 C.3     1  UNL1        0.0067
     27 C          62.6663   84.9353   11.6070 C.3     1  UNL1        0.0468
     28 C          62.2102   83.0886   14.0220 C.3     1  UNL1        0.0024
     29 C          63.2155   84.2018   14.0380 C.3     1  UNL1        0.0251
     30 C          64.2208   85.3149   14.0540 C.3     1  UNL1        0.0024
     31 C          63.0203   84.3568   15.5172 C.3     1  UNL1        0.0024
@<TRIPOS>BOND
     1    28    29    1
     2    29    30    1
     3    29    31    1
     4    22    29    1
     5    22    23    1
     6    23    24    1
     7    24    25    1
     8    25    26    1
     9    26    27    1
    10    27    21    1
    11    21    19    1
    12    19     1    1
    13     1     2   ar
    14     2     3   ar
    15     3     4    1
    16     3     5   ar
    17     5     9    1
    18     9    10    2
    19     9    11    2
    20     9    12    1
    21    12    14    1
    22    14    15   ar
    23    15    16   ar
    24    16    17   ar
    25    17    18   ar
    26     5     6   ar
    27     6     7   ar
    28     7     8    1
    29    27    22    1
    30     7     1   ar
    31    18    14   ar
    32    19    20    1
    33    12    13    1
@<TRIPOS>MOLECULE
*****
 31 33 0 0 0
SMALL
GASTEIGER

@<TRIPOS>ATOM
      1 C          63.5544   89.2438   14.1898 C.ar    1  UNL1        0.0577
      2 C          63.5991   88.2733   13.0470 C.ar    1  UNL1        0.0462
      3 C          63.6577   86.7989   13.3170 C.ar    1  UNL1        0.1602
      4 F          63.7024   85.8283   12.1742 F       1  UNL1       -0.2027
      5 C          63.6716   86.2951   14.7298 C.ar    1  UNL1        0.1534
      6 C          63.6269   87.2657   15.8726 C.ar    1  UNL1        0.0351
      7 C          63.5683   88.7400   15.6027 C.ar    1  UNL1        0.0722
      8 CL         63.5236   89.7105   16.7455 Cl      1  UNL1       -0.0809
      9 S          63.7302   84.8208   14.9998 S.O2    1  UNL1        0.0772
     10 O          62.2647   84.8212   15.3199 O.2     1  UNL1       -0.1498
     11 O          65.1956   84.8204   14.6797 O.2     1  UNL1       -0.1498
     12 N          63.7887   83.3464   15.2698 N.pl3   1  UNL1       -0.1936
     13 H          64.1171   83.0176   16.1377 H       1  UNL1        0.1758
     14 C          63.3469   82.3732   14.2174 C.ar    1  UNL1        0.1786
     15 N          62.7852   81.0041   14.4626 N.ar    1  UNL1       -0.2214
     16 C          62.4804   80.3828   13.1318 C.ar    1  UNL1        0.1079
     17 C          62.8536   81.3680   12.0640 C.ar    1  UNL1        0.0588
     18 S          63.3892   82.5981   12.7349 S.2     1  UNL1       -0.0497
     19 N          63.4958   90.7181   13.9199 N.pl3   1  UNL1       -0.3319
     20 H          62.7130   91.2407   14.2086 H       1  UNL1        0.1468
     21 C          64.6299   91.3963   13.2100 C.3     1  UNL1        0.0894
     22 C          66.8692   92.7113   13.2899 C.3     1  UNL1        0.1166
     23 O          67.9637   93.3661   14.0793 O.3     1  UNL1       -0.3562
     24 C          67.9134   93.3607   15.5785 C.3     1  UNL1        0.1421
     25 C          66.7687   92.7006   16.2881 C.3     1  UNL1        0.0322
     26 C          65.6742   92.0458   15.4987 C.3     1  UNL1        0.0067
     27 C          65.7245   92.0511   13.9995 C.3     1  UNL1        0.0468
     28 C          65.9040   93.8202   11.7606 C.3     1  UNL1        0.0024
     29 C          66.9195   92.7167   11.7907 C.3     1  UNL1        0.0251
     30 C          67.9351   91.6132   11.8208 C.3     1  UNL1        0.0024
     31 C          66.9698   92.7221   10.2916 C.3     1  UNL1        0.0024
@<TRIPOS>BOND
     1    28    29    1
     2    29    30    1
     3    29    31    1
     4    22    29    1
     5    22    23    1
     6    23    24    1
     7    24    25    1
     8    25    26    1
     9    26    27    1
    10    27    21    1
    11    21    19    1
    12    19     1    1
    13     1     2   ar
    14     2     3   ar
    15     3     4    1
    16     3     5   ar
    17     5     9    1
    18     9    10    2
    19     9    11    2
    20     9    12    1
    21    12    14    1
    22    14    15   ar
    23    15    16   ar
    24    16    17   ar
    25    17    18   ar
    26     5     6   ar
    27     6     7   ar
    28     7     8    1
    29    27    22    1
    30     7     1   ar
    31    18    14   ar
    32    19    20    1
    33    12    13    1
@<TRIPOS>MOLECULE
*****
 31 33 0 0 0
SMALL
GASTEIGER

@<TRIPOS>ATOM
      1 C          63.6796   88.6161   13.2333 C.ar    1  UNL1        0.0577
      2 C          64.2744   88.1993   14.5457 C.ar    1  UNL1        0.0462
      3 C          64.3002   86.7497   14.9309 C.ar    1  UNL1        0.1602
      4 F          64.8950   86.3329   16.2433 F       1  UNL1       -0.2027
      5 C          63.7313   85.7171   14.0036 C.ar    1  UNL1        0.1534
      6 C          63.1365   86.1339   12.6911 C.ar    1  UNL1        0.0351
      7 C          63.1107   87.5833   12.3060 C.ar    1  UNL1        0.0722
      8 CL         62.5159   88.0001   10.9935 Cl      1  UNL1       -0.0809
      9 S          63.7571   84.2676   14.3887 S.O2    1  UNL1        0.0772
     10 O          65.2257   84.2140   14.0884 O.2     1  UNL1       -0.1498
     11 O          62.2885   84.3213   14.6891 O.2     1  UNL1       -0.1498
     12 N          63.7830   82.8181   14.7739 N.pl3   1  UNL1       -0.1936
     13 H          64.1014   82.5516   15.6665 H       1  UNL1        0.1758
     14 C          63.3237   81.7747   13.7990 C.ar    1  UNL1        0.1786
     15 N          62.7661   80.4266   14.1479 N.ar    1  UNL1       -0.2214
     16 C          62.4391   79.7150   12.8685 C.ar    1  UNL1        0.1079
     17 C          62.7946   80.6233   11.7290 C.ar    1  UNL1        0.0588
     18 S          63.3413   81.8963   12.3040 S.2     1  UNL1       -0.0497
     19 N          63.6538   90.0655   12.8481 N.pl3   1  UNL1       -0.3319
     20 H          62.9515   90.4024   12.2460 H       1  UNL1        0.1468
     21 C          64.6980   91.0017   13.3803 C.3     1  UNL1        0.0894
     22 C          66.5668   92.7369   12.8838 C.3     1  UNL1        0.1166
     23 O          67.1674   93.7784   11.9869 O.3     1  UNL1       -0.3562
     24 C          66.4997   94.1264   10.6896 C.3     1  UNL1        0.1421
     25 C          65.2314   93.4328   10.2891 C.3     1  UNL1        0.0322
     26 C          64.6309   92.3913   11.1860 C.3     1  UNL1        0.0067
     27 C          65.2986   92.0433   12.4834 C.3     1  UNL1        0.0468
     28 C          66.1700   93.1353   14.9292 C.3     1  UNL1        0.0024
     29 C          67.2346   92.3890   14.1811 C.3     1  UNL1        0.0251
     30 C          68.2992   91.6426   13.4330 C.3     1  UNL1        0.0024
     31 C          67.9023   92.0410   15.4785 C.3     1  UNL1        0.0024
@<TRIPOS>BOND
     1    28    29    1
     2    29    30    1
     3    29    31    1
     4    22    29    1
     5    22    23    1
     6    23    24    1
     7    24    25    1
     8    25    26    1
     9    26    27    1
    10    27    21    1
    11    21    19    1
    12    19     1    1
    13     1     2   ar
    14     2     3   ar
    15     3     4    1
    16     3     5   ar
    17     5     9    1
    18     9    10    2
    19     9    11    2
    20     9    12    1
    21    12    14    1
    22    14    15   ar
    23    15    16   ar
    24    16    17   ar
    25    17    18   ar
    26     5     6   ar
    27     6     7   ar
    28     7     8    1
    29    27    22    1
    30     7     1   ar
    31    18    14   ar
    32    19    20    1
    33    12    13    1
@<TRIPOS>MOLECULE
*****
 31 33 0 0 0
SMALL
GASTEIGER

@<TRIPOS>ATOM
      1 C          62.1599   85.7550    9.9527 C.ar    1  UNL1        0.0577
      2 C          61.2488   86.6896   10.6919 C.ar    1  UNL1        0.0462
      3 C          60.2850   87.5534    9.9336 C.ar    1  UNL1        0.1602
      4 F          59.3739   88.4881   10.6727 F       1  UNL1       -0.2027
      5 C          60.2322   87.4825    8.4362 C.ar    1  UNL1        0.1534
      6 C          61.1433   86.5478    7.6971 C.ar    1  UNL1        0.0351
      7 C          62.1071   85.6841    8.4553 C.ar    1  UNL1        0.0722
      8 CL         63.0181   84.7494    7.7161 Cl      1  UNL1       -0.0809
      9 S          59.2684   88.3463    7.6780 S.O2    1  UNL1        0.0772
     10 O          59.9755   89.5720    8.1755 O.2     1  UNL1       -0.1498
     11 O          58.5613   87.1206    7.1805 O.2     1  UNL1       -0.1498
     12 N          58.3046   89.2101    6.9198 N.pl3   1  UNL1       -0.1936
     13 H          57.3357   89.1100    7.0633 H       1  UNL1        0.1758
     14 C          58.8169   90.2266    5.9428 C.ar    1  UNL1        0.1786
     15 N          60.2429   90.3903    5.5072 N.ar    1  UNL1       -0.2214
     16 C          60.3005   91.5227    4.5252 C.ar    1  UNL1        0.1079
     17 C          58.9101   92.0588    4.3538 C.ar    1  UNL1        0.0588
     18 S          57.9931   91.2578    5.2299 S.2     1  UNL1       -0.0497
     19 N          63.1237   84.8912   10.7109 N.pl3   1  UNL1       -0.3319
     20 H          63.8646   84.4478   10.2379 H       1  UNL1        0.1468
     21 C          62.9588   84.7029   12.1899 C.3     1  UNL1        0.0894
     22 C          63.3285   83.1260   14.2213 C.3     1  UNL1        0.1166
     23 O          63.3455   81.7457   14.8081 O.3     1  UNL1       -0.3562
     24 C          63.0098   80.5619   13.9503 C.3     1  UNL1        0.1421
     25 C          62.6571   80.7584   12.5057 C.3     1  UNL1        0.0322
     26 C          62.6401   82.1387   11.9189 C.3     1  UNL1        0.0067
     27 C          62.9758   83.3225   12.7767 C.3     1  UNL1        0.0468
     28 C          65.0507   84.3311   14.5073 C.3     1  UNL1        0.0024
     29 C          63.6642   84.3099   15.0792 C.3     1  UNL1        0.0251
     30 C          62.2777   84.2886   15.6511 C.3     1  UNL1        0.0024
     31 C          63.9999   85.4937   15.9370 C.3     1  UNL1        0.0024
@<TRIPOS>BOND
     1    28    29    1
     2    29    30    1
     3    29    31    1
     4    22    29    1
     5    22    23    1
     6    23    24    1
     7    24    25    1
     8    25    26    1
     9    26    27    1
    10    27    21    1
    11    21    19    1
    12    19     1    1
    13     1     2   ar
    14     2     3   ar
    15     3     4    1
    16     3     5   ar
    17     5     9    1
    18     9    10    2
    19     9    11    2
    20     9    12    1
    21    12    14    1
    22    14    15   ar
    23    15    16   ar
    24    16    17   ar
    25    17    18   ar
    26     5     6   ar
    27     6     7   ar
    28     7     8    1
    29    27    22    1
    30     7     1   ar
    31    18    14   ar
    32    19    20    1
    33    12    13    1
@<TRIPOS>MOLECULE
*****
 31 33 0 0 0
SMALL
GASTEIGER

@<TRIPOS>ATOM
      1 C          62.7436   89.7420   11.9475 C.ar    1  UNL1        0.0577
      2 C          63.7632   89.8593   13.0414 C.ar    1  UNL1        0.0462
      3 C          64.8236   90.9178   12.9679 C.ar    1  UNL1        0.1602
      4 F          65.8433   91.0351   14.0617 F       1  UNL1       -0.2027
      5 C          64.8642   91.8589   11.8006 C.ar    1  UNL1        0.1534
      6 C          63.8446   91.7416   10.7067 C.ar    1  UNL1        0.0351
      7 C          62.7843   90.6831   10.7802 C.ar    1  UNL1        0.0722
      8 CL         61.7646   90.5658    9.6863 Cl      1  UNL1       -0.0809
      9 S          65.9245   92.9173   11.7271 S.O2    1  UNL1        0.0772
     10 O          65.5210   93.4157   13.0831 O.2     1  UNL1       -0.1498
     11 O          66.3281   92.4190   10.3712 O.2     1  UNL1       -0.1498
     12 N          66.9849   93.9758   11.6537 N.pl3   1  UNL1       -0.1936
     13 H          67.6941   94.0103   12.3357 H       1  UNL1        0.1758
     14 C          66.9646   94.9818   10.5412 C.ar    1  UNL1        0.1786
     15 N          67.9319   95.0503    9.3968 N.ar    1  UNL1       -0.2214
     16 C          67.5387   96.2066    8.5260 C.ar    1  UNL1        0.1079
     17 C          66.3284   96.8529    9.1324 C.ar    1  UNL1        0.0588
     18 S          65.9736   96.0959   10.3778 S.2     1  UNL1       -0.0497
     19 N          61.6833   88.6835   12.0210 N.pl3   1  UNL1       -0.3319
     20 H          60.8607   88.8458   12.5370 H       1  UNL1        0.1468
     21 C          61.8762   87.3779   11.3082 C.3     1  UNL1        0.0894
     22 C          61.4472   85.9036    9.2123 C.3     1  UNL1        0.1166
     23 O          60.6424   85.5931    7.9852 O.3     1  UNL1       -0.3562
     24 C          59.4619   86.4462    7.6268 C.3     1  UNL1        0.1421
     25 C          59.0861   87.6098    8.4955 C.3     1  UNL1        0.0322
     26 C          59.8908   87.9204    9.7226 C.3     1  UNL1        0.0067
     27 C          61.0714   87.0673   10.0810 C.3     1  UNL1        0.0468
     28 C          62.0172   84.7688   10.9115 C.3     1  UNL1        0.0024
     29 C          62.6278   85.0506    9.5707 C.3     1  UNL1        0.0251
     30 C          63.2385   85.3323    8.2299 C.3     1  UNL1        0.0024
     31 C          63.8084   84.1975    9.9291 C.3     1  UNL1        0.0024
@<TRIPOS>BOND
     1    28    29    1
     2    29    30    1
     3    29    31    1
     4    22    29    1
     5    22    23    1
     6    23    24    1
     7    24    25    1
     8    25    26    1
     9    26    27    1
    10    27    21    1
    11    21    19    1
    12    19     1    1
    13     1     2   ar
    14     2     3   ar
    15     3     4    1
    16     3     5   ar
    17     5     9    1
    18     9    10    2
    19     9    11    2
    20     9    12    1
    21    12    14    1
    22    14    15   ar
    23    15    16   ar
    24    16    17   ar
    25    17    18   ar
    26     5     6   ar
    27     6     7   ar
    28     7     8    1
    29    27    22    1
    30     7     1   ar
    31    18    14   ar
    32    19    20    1
    33    12    13    1
@<TRIPOS>MOLECULE
*****
 31 33 0 0 0
SMALL
GASTEIGER

@<TRIPOS>ATOM
      1 C          62.2464   85.4947    9.8559 C.ar    1  UNL1        0.0577
      2 C          61.3319   86.3852   10.6438 C.ar    1  UNL1        0.0462
      3 C          60.3580   87.2775    9.9329 C.ar    1  UNL1        0.1602
      4 F          59.4436   88.1680   10.7208 F       1  UNL1       -0.2027
      5 C          60.2986   87.2793    8.4341 C.ar    1  UNL1        0.1534
      6 C          61.2131   86.3888    7.6461 C.ar    1  UNL1        0.0351
      7 C          62.1869   85.4965    8.3570 C.ar    1  UNL1        0.0722
      8 CL         63.1014   84.6060    7.5691 Cl      1  UNL1       -0.0809
      9 S          59.3248   88.1716    7.7232 S.O2    1  UNL1        0.0772
     10 O          58.5938   86.9660    7.2113 O.2     1  UNL1       -0.1498
     11 O          60.0557   89.3772    8.2352 O.2     1  UNL1       -0.1498
     12 N          58.3508   89.0639    7.0123 N.pl3   1  UNL1       -0.1936
     13 H          57.3855   88.9741    7.1834 H       1  UNL1        0.1758
     14 C          58.8478   90.0931    6.0408 C.ar    1  UNL1        0.1786
     15 N          60.2657   90.2586    5.5801 N.ar    1  UNL1       -0.2214
     16 C          60.3083   91.4053    4.6140 C.ar    1  UNL1        0.1079
     17 C          58.9168   91.9484    4.4775 C.ar    1  UNL1        0.0588
     18 S          58.0141   91.1374    5.3593 S.2     1  UNL1       -0.0497
     19 N          63.2202   84.6024   10.5667 N.pl3   1  UNL1       -0.3319
     20 H          64.1715   84.6111   10.3132 H       1  UNL1        0.1468
     21 C          62.7448   83.6968   11.6639 C.3     1  UNL1        0.0894
     22 C          63.1605   82.8348   14.0794 C.3     1  UNL1        0.1166
     23 O          63.5748   83.0935   15.4976 O.3     1  UNL1       -0.3562
     24 C          63.9877   84.4727   15.9187 C.3     1  UNL1        0.1421
     25 C          63.9863   85.5932   14.9216 C.3     1  UNL1        0.0322
     26 C          63.5720   85.3346   13.5034 C.3     1  UNL1        0.0067
     27 C          63.1591   83.9554   13.0823 C.3     1  UNL1        0.0468
     28 C          64.1055   81.2311   13.0620 C.3     1  UNL1        0.0024
     29 C          62.7476   81.4556   13.6583 C.3     1  UNL1        0.0251
     30 C          61.3896   81.6801   14.2546 C.3     1  UNL1        0.0024
     31 C          62.3346   80.0764   13.2372 C.3     1  UNL1        0.0024
@<TRIPOS>BOND
     1    28    29    1
     2    29    30    1
     3    29    31    1
     4    22    29    1
     5    22    23    1
     6    23    24    1
     7    24    25    1
     8    25    26    1
     9    26    27    1
    10    27    21    1
    11    21    19    1
    12    19     1    1
    13     1     2   ar
    14     2     3   ar
    15     3     4    1
    16     3     5   ar
    17     5     9    1
    18     9    10    2
    19     9    11    2
    20     9    12    1
    21    12    14    1
    22    14    15   ar
    23    15    16   ar
    24    16    17   ar
    25    17    18   ar
    26     5     6   ar
    27     6     7   ar
    28     7     8    1
    29    27    22    1
    30     7     1   ar
    31    18    14   ar
    32    19    20    1
    33    12    13    1
@<TRIPOS>MOLECULE
*****
 31 33 0 0 0
SMALL
GASTEIGER

@<TRIPOS>ATOM
      1 C          63.5601   88.9199   13.2153 C.ar    1  UNL1        0.0577
      2 C          64.1378   88.5109   14.5378 C.ar    1  UNL1        0.0462
      3 C          64.2394   87.0574   14.8945 C.ar    1  UNL1        0.1602
      4 F          64.8170   86.6484   16.2170 F       1  UNL1       -0.2027
      5 C          63.7633   86.0131   13.9288 C.ar    1  UNL1        0.1534
      6 C          63.1856   86.4221   12.6063 C.ar    1  UNL1        0.0351
      7 C          63.0840   87.8755   12.2496 C.ar    1  UNL1        0.0722
      8 CL         62.5063   88.2846   10.9271 Cl      1  UNL1       -0.0809
      9 S          63.8649   84.5597   14.2856 S.O2    1  UNL1        0.0772
     10 O          65.3431   84.6015   14.0346 O.2     1  UNL1       -0.1498
     11 O          62.3866   84.5180   14.5365 O.2     1  UNL1       -0.1498
     12 N          63.9665   83.1062   14.6423 N.pl3   1  UNL1       -0.1936
     13 H          64.3730   82.8365   15.4975 H       1  UNL1        0.1758
     14 C          63.4489   82.0638   13.6961 C.ar    1  UNL1        0.1786
     15 N          62.8086   80.7632   14.0815 N.ar    1  UNL1       -0.2214
     16 C          62.4447   80.0345   12.8220 C.ar    1  UNL1        0.1079
     17 C          62.8601   80.8846   11.6581 C.ar    1  UNL1        0.0588
     18 S          63.4808   82.1388   12.1983 S.2     1  UNL1       -0.0497
     19 N          63.4585   90.3733   12.8586 N.pl3   1  UNL1       -0.3319
     20 H          62.5954   90.8403   12.9373 H       1  UNL1        0.1468
     21 C          64.6719   91.1152   12.3818 C.3     1  UNL1        0.0894
     22 C          66.6757   92.6929   12.8773 C.3     1  UNL1        0.1166
     23 O          67.5453   93.4188   13.8606 O.3     1  UNL1       -0.3562
     24 C          67.2806   93.2930   15.3317 C.3     1  UNL1        0.1421
     25 C          66.1464   92.4412   15.8195 C.3     1  UNL1        0.0322
     26 C          65.2769   91.7153   14.8362 C.3     1  UNL1        0.0067
     27 C          65.5415   91.8411   13.3651 C.3     1  UNL1        0.0468
     28 C          68.0300   91.7936   11.5145 C.3     1  UNL1        0.0024
     29 C          66.9404   92.8188   11.4062 C.3     1  UNL1        0.0251
     30 C          65.8507   93.8440   11.2979 C.3     1  UNL1        0.0024
     31 C          67.2050   92.9447    9.9351 C.3     1  UNL1        0.0024
@<TRIPOS>BOND
     1    28    29    1
     2    29    30    1
     3    29    31    1
     4    22    29    1
     5    22    23    1
     6    23    24    1
     7    24    25    1
     8    25    26    1
     9    26    27    1
    10    27    21    1
    11    21    19    1
    12    19     1    1
    13     1     2   ar
    14     2     3   ar
    15     3     4    1
    16     3     5   ar
    17     5     9    1
    18     9    10    2
    19     9    11    2
    20     9    12    1
    21    12    14    1
    22    14    15   ar
    23    15    16   ar
    24    16    17   ar
    25    17    18   ar
    26     5     6   ar
    27     6     7   ar
    28     7     8    1
    29    27    22    1
    30     7     1   ar
    31    18    14   ar
    32    19    20    1
    33    12    13    1
