@<TRIPOS>MOLECULE
*****
 23 26 0 0 0
SMALL
GASTEIGER

@<TRIPOS>ATOM
      1 C          62.9316   85.9706   12.4175 C.3     1  UNL1        0.1518
      2 N          62.9298   87.4302   12.0715 N.ar    1  UNL1       -0.2662
      3 C          63.5276   88.5322   12.8949 C.ar    1  UNL1        0.0541
      4 C          63.2971   89.8271   12.1735 C.ar    1  UNL1        0.0484
      5 C          62.5568   89.5251   10.9043 C.ar    1  UNL1        0.2759
      6 O          62.1203   90.5285    9.8783 O.2     1  UNL1       -0.2655
      7 N          62.3299   88.0438   10.8412 N.ar    1  UNL1       -0.2139
      8 C          63.8949   90.9292   12.9969 C.3     1  UNL1        0.0286
      9 C          64.6351   91.2311   14.2661 C.3     1  UNL1        0.0049
     10 C          64.8656   89.9363   14.9875 C.3     1  UNL1        0.0059
     11 C          64.2678   88.8341   14.1641 C.3     1  UNL1        0.0352
     12 C          64.2697   87.3746   14.5102 C.3     1  UNL1        0.0059
     13 C          63.6679   89.4478   12.9338 C.3     1  UNL1        0.0088
     14 C          63.1550   88.1882   12.3011 C.3     1  UNL1        0.0007
     15 C          62.9385   89.4039   11.6238 C.3     1  UNL1        0.0007
     16 C          61.6264   87.3056    9.7411 C.ar    1  UNL1        0.0954
     17 C          62.3955   86.3738    8.8521 C.ar    1  UNL1        0.0314
     18 C          61.6922   85.6356    7.7520 C.ar    1  UNL1        0.0592
     19 CL         62.4613   84.7038    6.8629 Cl      1  UNL1       -0.0822
     20 C          60.2199   85.8290    7.5408 C.ar    1  UNL1        0.0124
     21 C          59.4508   86.7608    8.4299 C.ar    1  UNL1        0.0138
     22 C          60.1540   87.4991    9.5300 C.ar    1  UNL1        0.0754
     23 CL         59.3849   88.4308   10.4190 Cl      1  UNL1       -0.0807
@<TRIPOS>BOND
     1     1     2    1
     2     2     3   ar
     3     3     4   ar
     4     4     5   ar
     5     5     6    2
     6     5     7   ar
     7     7    16    1
     8    16    17   ar
     9    17    18   ar
    10    18    19    1
    11    18    20   ar
    12    20    21   ar
    13    21    22   ar
    14    22    23    1
    15     4     8    1
    16     8     9    1
    17     9    10    1
    18    10    11    1
    19    11    12    1
    20    11    13    1
    21    13    14    1
    22    13    15    1
    23     7     2   ar
    24    22    16   ar
    25    13     8    1
    26    11     3    1
@<TRIPOS>MOLECULE
*****
 23 26 0 0 0
SMALL
GASTEIGER

@<TRIPOS>ATOM
      1 C          63.7538   91.4686   10.2945 C.3     1  UNL1        0.1518
      2 N          63.9609   91.0407   11.7172 N.ar    1  UNL1       -0.2662
      3 C          64.8287   91.7302   12.7278 C.ar    1  UNL1        0.0541
      4 C          64.7406   90.9637   14.0143 C.ar    1  UNL1        0.0484
      5 C          63.8184   89.8005   13.7985 C.ar    1  UNL1        0.2759
      6 O          63.4439   88.7706   14.8228 O.2     1  UNL1       -0.2655
      7 N          63.3365   89.8481   12.3789 N.ar    1  UNL1       -0.2139
      8 C          65.6084   91.6533   15.0250 C.3     1  UNL1        0.0286
      9 C          66.5306   92.8164   15.2407 C.3     1  UNL1        0.0049
     10 C          66.6186   93.5829   13.9543 C.3     1  UNL1        0.0059
     11 C          65.7509   92.8934   12.9435 C.3     1  UNL1        0.0352
     12 C          65.5438   93.3214   11.5209 C.3     1  UNL1        0.0059
     13 C          65.1265   91.7008   13.6053 C.3     1  UNL1        0.0088
     14 C          64.3369   91.2006   12.4321 C.3     1  UNL1        0.0007
     15 C          64.2542   90.4809   13.6399 C.3     1  UNL1        0.0007
     16 C          62.3955   88.8741   11.7341 C.ar    1  UNL1        0.0954
     17 C          62.8220   87.4530   11.5136 C.ar    1  UNL1        0.0314
     18 C          61.8811   86.4790   10.8687 C.ar    1  UNL1        0.0592
     19 CL         62.3076   85.0579   10.6483 Cl      1  UNL1       -0.0822
     20 C          60.5136   86.9260   10.4444 C.ar    1  UNL1        0.0124
     21 C          60.0870   88.3471   10.6649 C.ar    1  UNL1        0.0138
     22 C          61.0280   89.3211   11.3097 C.ar    1  UNL1        0.0754
     23 CL         60.6014   90.7422   11.5302 Cl      1  UNL1       -0.0807
@<TRIPOS>BOND
     1     1     2    1
     2     2     3   ar
     3     3     4   ar
     4     4     5   ar
     5     5     6    2
     6     5     7   ar
     7     7    16    1
     8    16    17   ar
     9    17    18   ar
    10    18    19    1
    11    18    20   ar
    12    20    21   ar
    13    21    22   ar
    14    22    23    1
    15     4     8    1
    16     8     9    1
    17     9    10    1
    18    10    11    1
    19    11    12    1
    20    11    13    1
    21    13    14    1
    22    13    15    1
    23     7     2   ar
    24    22    16   ar
    25    13     8    1
    26    11     3    1
@<TRIPOS>MOLECULE
*****
 23 26 0 0 0
SMALL
GASTEIGER

@<TRIPOS>ATOM
      1 C          62.8236   89.5300   11.9958 C.3     1  UNL1        0.1518
      2 N          63.8925   90.3426   12.6645 N.ar    1  UNL1       -0.2662
      3 C          64.5614   91.5585   12.0953 C.ar    1  UNL1        0.0541
      4 C          65.5625   92.0493   13.0988 C.ar    1  UNL1        0.0484
      5 C          65.5122   91.1367   14.2882 C.ar    1  UNL1        0.2759
      6 O          66.3475   91.2577   15.5283 O.2     1  UNL1       -0.2655
      7 N          64.4801   90.0819   14.0198 N.ar    1  UNL1       -0.2139
      8 C          66.2314   93.2653   12.5296 C.3     1  UNL1        0.0286
      9 C          66.2817   94.1780   11.3402 C.3     1  UNL1        0.0049
     10 C          65.2806   93.6871   10.3368 C.3     1  UNL1        0.0059
     11 C          64.6116   92.4712   10.9059 C.3     1  UNL1        0.0352
     12 C          63.5427   91.6586   10.2372 C.3     1  UNL1        0.0059
     13 C          65.1993   92.2105   12.2612 C.3     1  UNL1        0.0088
     14 C          64.3955   90.9920   12.6064 C.3     1  UNL1        0.0007
     15 C          65.3354   91.4528   13.5486 C.3     1  UNL1        0.0007
     16 C          64.1020   88.9628   14.9442 C.ar    1  UNL1        0.0954
     17 C          64.4027   87.5429   14.5652 C.ar    1  UNL1        0.0314
     18 C          64.0245   86.4238   15.4896 C.ar    1  UNL1        0.0592
     19 CL         64.3252   85.0039   15.1105 Cl      1  UNL1       -0.0822
     20 C          63.3458   86.7244   16.7929 C.ar    1  UNL1        0.0124
     21 C          63.0451   88.1443   17.1720 C.ar    1  UNL1        0.0138
     22 C          63.4232   89.2635   16.2476 C.ar    1  UNL1        0.0754
     23 CL         63.1225   90.6833   16.6266 Cl      1  UNL1       -0.0807
@<TRIPOS>BOND
     1     1     2    1
     2     2     3   ar
     3     3     4   ar
     4     4     5   ar
     5     5     6    2
     6     5     7   ar
     7     7    16    1
     8    16    17   ar
     9    17    18   ar
    10    18    19    1
    11    18    20   ar
    12    20    21   ar
    13    21    22   ar
    14    22    23    1
    15     4     8    1
    16     8     9    1
    17     9    10    1
    18    10    11    1
    19    11    12    1
    20    11    13    1
    21    13    14    1
    22    13    15    1
    23     7     2   ar
    24    22    16   ar
    25    13     8    1
    26    11     3    1
@<TRIPOS>MOLECULE
*****
 23 26 0 0 0
SMALL
GASTEIGER

@<TRIPOS>ATOM
      1 C          63.6740   84.2937   10.1878 C.3     1  UNL1        0.1518
      2 N          63.1624   84.0061   11.5683 N.ar    1  UNL1       -0.2662
      3 C          62.8922   82.6473   12.1431 C.ar    1  UNL1        0.0541
      4 C          62.3940   82.8284   13.5464 C.ar    1  UNL1        0.0484
      5 C          62.3564   84.2991   13.8387 C.ar    1  UNL1        0.2759
      6 O          61.9203   84.9310   15.1274 O.2     1  UNL1       -0.2655
      7 N          62.8313   85.0270   12.6163 N.ar    1  UNL1       -0.2139
      8 C          62.1237   81.4695   14.1212 C.3     1  UNL1        0.0286
      9 C          62.1613   79.9987   13.8288 C.3     1  UNL1        0.0049
     10 C          62.6595   79.8177   12.4256 C.3     1  UNL1        0.0059
     11 C          62.9298   81.1766   11.8507 C.3     1  UNL1        0.0352
     12 C          63.4414   81.4640   10.4703 C.3     1  UNL1        0.0059
     13 C          62.5986   82.1974   12.8987 C.3     1  UNL1        0.0088
     14 C          62.9405   83.4259   12.1088 C.3     1  UNL1        0.0007
     15 C          62.4728   83.5959   13.4263 C.3     1  UNL1        0.0007
     16 C          62.9536   86.5146   12.4677 C.ar    1  UNL1        0.0954
     17 C          62.2554   87.2156   11.3402 C.ar    1  UNL1        0.0314
     18 C          62.3777   88.7032   11.1915 C.ar    1  UNL1        0.0592
     19 CL         61.6794   89.4041   10.0640 Cl      1  UNL1       -0.0822
     20 C          63.1981   89.4898   12.1702 C.ar    1  UNL1        0.0124
     21 C          63.8964   88.7888   13.2977 C.ar    1  UNL1        0.0138
     22 C          63.7741   87.3012   13.4464 C.ar    1  UNL1        0.0754
     23 CL         64.4723   86.6003   14.5739 Cl      1  UNL1       -0.0807
@<TRIPOS>BOND
     1     1     2    1
     2     2     3   ar
     3     3     4   ar
     4     4     5   ar
     5     5     6    2
     6     5     7   ar
     7     7    16    1
     8    16    17   ar
     9    17    18   ar
    10    18    19    1
    11    18    20   ar
    12    20    21   ar
    13    21    22   ar
    14    22    23    1
    15     4     8    1
    16     8     9    1
    17     9    10    1
    18    10    11    1
    19    11    12    1
    20    11    13    1
    21    13    14    1
    22    13    15    1
    23     7     2   ar
    24    22    16   ar
    25    13     8    1
    26    11     3    1
@<TRIPOS>MOLECULE
*****
 23 26 0 0 0
SMALL
GASTEIGER

@<TRIPOS>ATOM
      1 C          64.2022   86.0545   14.0968 C.3     1  UNL1        0.1518
      2 N          63.4251   86.4499   12.8762 N.ar    1  UNL1       -0.2662
      3 C          63.1613   87.8526   12.4150 C.ar    1  UNL1        0.0541
      4 C          62.3486   87.7814   11.1562 C.ar    1  UNL1        0.0484
      5 C          62.1102   86.3348   10.8395 C.ar    1  UNL1        0.2759
      6 O          61.3413   85.8043    9.6658 O.2     1  UNL1       -0.2655
      7 N          62.7755   85.5118   11.9025 N.ar    1  UNL1       -0.2139
      8 C          62.0847   89.1842   10.6950 C.3     1  UNL1        0.0286
      9 C          62.3231   90.6309   11.0117 C.3     1  UNL1        0.0049
     10 C          63.1358   90.7020   12.2704 C.3     1  UNL1        0.0059
     11 C          63.3997   89.2992   12.7317 C.3     1  UNL1        0.0352
     12 C          64.1768   88.9040   13.9523 C.3     1  UNL1        0.0059
     13 C          62.7501   88.3612   11.7580 C.3     1  UNL1        0.0088
     14 C          63.1434   87.0719   12.4160 C.3     1  UNL1        0.0007
     15 C          62.3804   87.0051   11.2342 C.3     1  UNL1        0.0007
     16 C          62.7890   84.0138   11.9786 C.ar    1  UNL1        0.0954
     17 C          62.1860   83.3176   13.1626 C.ar    1  UNL1        0.0314
     18 C          62.1994   81.8196   13.2388 C.ar    1  UNL1        0.0592
     19 CL         61.5965   81.1234   14.4227 Cl      1  UNL1       -0.0822
     20 C          62.8157   81.0178   12.1309 C.ar    1  UNL1        0.0124
     21 C          63.4186   81.7140   10.9469 C.ar    1  UNL1        0.0138
     22 C          63.4053   83.2120   10.8708 C.ar    1  UNL1        0.0754
     23 CL         64.0082   83.9082    9.6868 Cl      1  UNL1       -0.0807
@<TRIPOS>BOND
     1     1     2    1
     2     2     3   ar
     3     3     4   ar
     4     4     5   ar
     5     5     6    2
     6     5     7   ar
     7     7    16    1
     8    16    17   ar
     9    17    18   ar
    10    18    19    1
    11    18    20   ar
    12    20    21   ar
    13    21    22   ar
    14    22    23    1
    15     4     8    1
    16     8     9    1
    17     9    10    1
    18    10    11    1
    19    11    12    1
    20    11    13    1
    21    13    14    1
    22    13    15    1
    23     7     2   ar
    24    22    16   ar
    25    13     8    1
    26    11     3    1
@<TRIPOS>MOLECULE
*****
 23 26 0 0 0
SMALL
GASTEIGER

@<TRIPOS>ATOM
      1 C          62.2055   86.9099   11.0599 C.3     1  UNL1        0.1518
      2 N          63.0057   87.0873   12.3163 N.ar    1  UNL1       -0.2662
      3 C          63.4951   88.3913   12.8730 C.ar    1  UNL1        0.0541
      4 C          64.2488   88.1017   14.1372 C.ar    1  UNL1        0.0484
      5 C          64.2250   86.6188   14.3618 C.ar    1  UNL1        0.2759
      6 O          64.8584   85.8908   15.5102 O.2     1  UNL1       -0.2655
      7 N          63.4568   85.9919   13.2364 N.ar    1  UNL1       -0.2139
      8 C          64.7382   89.4058   14.6940 C.3     1  UNL1        0.0286
      9 C          64.7620   90.8887   14.4695 C.3     1  UNL1        0.0049
     10 C          64.0084   91.1782   13.2053 C.3     1  UNL1        0.0059
     11 C          63.5189   89.8742   12.6485 C.3     1  UNL1        0.0352
     12 C          62.7188   89.6968   11.3921 C.3     1  UNL1        0.0059
     13 C          63.9700   88.7788   13.5686 C.3     1  UNL1        0.0088
     14 C          63.3779   87.6210   12.8208 C.3     1  UNL1        0.0007
     15 C          64.0855   87.3492   14.0078 C.3     1  UNL1        0.0007
     16 C          63.1869   84.5267   13.0616 C.ar    1  UNL1        0.0954
     17 C          63.6012   83.8335   11.7976 C.ar    1  UNL1        0.0314
     18 C          63.3313   82.3683   11.6227 C.ar    1  UNL1        0.0592
     19 CL         63.7456   81.6751   10.3586 Cl      1  UNL1       -0.0822
     20 C          62.6472   81.5965   12.7118 C.ar    1  UNL1        0.0124
     21 C          62.2330   82.2898   13.9758 C.ar    1  UNL1        0.0138
     22 C          62.5028   83.7549   14.1507 C.ar    1  UNL1        0.0754
     23 CL         62.0885   84.4482   15.4148 Cl      1  UNL1       -0.0807
@<TRIPOS>BOND
     1     1     2    1
     2     2     3   ar
     3     3     4   ar
     4     4     5   ar
     5     5     6    2
     6     5     7   ar
     7     7    16    1
     8    16    17   ar
     9    17    18   ar
    10    18    19    1
    11    18    20   ar
    12    20    21   ar
    13    21    22   ar
    14    22    23    1
    15     4     8    1
    16     8     9    1
    17     9    10    1
    18    10    11    1
    19    11    12    1
    20    11    13    1
    21    13    14    1
    22    13    15    1
    23     7     2   ar
    24    22    16   ar
    25    13     8    1
    26    11     3    1
@<TRIPOS>MOLECULE
*****
 23 26 0 0 0
SMALL
GASTEIGER

@<TRIPOS>ATOM
      1 C          62.0007   85.8277   10.8265 C.3     1  UNL1        0.1518
      2 N          62.7924   85.9710   12.0925 N.ar    1  UNL1       -0.2662
      3 C          63.2647   87.2606   12.6958 C.ar    1  UNL1        0.0541
      4 C          64.0150   86.9364   13.9537 C.ar    1  UNL1        0.0484
      5 C          64.0063   85.4466   14.1276 C.ar    1  UNL1        0.2759
      6 O          64.6417   84.6868   15.2542 O.2     1  UNL1       -0.2655
      7 N          63.2507   84.8499   12.9775 N.ar    1  UNL1       -0.2139
      8 C          64.4873   88.2260   14.5570 C.3     1  UNL1        0.0286
      9 C          64.4960   89.7158   14.3830 C.3     1  UNL1        0.0049
     10 C          63.7458   90.0399   13.1252 C.3     1  UNL1        0.0059
     11 C          63.2734   88.7504   12.5218 C.3     1  UNL1        0.0352
     12 C          62.4817   88.6072   11.2558 C.3     1  UNL1        0.0059
     13 C          63.7317   87.6293   13.4067 C.3     1  UNL1        0.0088
     14 C          63.1562   86.4913   12.6169 C.3     1  UNL1        0.0007
     15 C          63.8606   86.1869   13.7979 C.3     1  UNL1        0.0007
     16 C          62.9978   83.3888   12.7517 C.ar    1  UNL1        0.0954
     17 C          62.0584   82.6424   13.6520 C.ar    1  UNL1        0.0314
     18 C          61.8054   81.1812   13.4263 C.ar    1  UNL1        0.0592
     19 CL         60.8660   80.4349   14.3266 Cl      1  UNL1       -0.0822
     20 C          62.4918   80.4664   12.3003 C.ar    1  UNL1        0.0124
     21 C          63.4312   81.2128   11.4000 C.ar    1  UNL1        0.0138
     22 C          63.6842   82.6739   11.6257 C.ar    1  UNL1        0.0754
     23 CL         64.6236   83.4203   10.7254 Cl      1  UNL1       -0.0807
@<TRIPOS>BOND
     1     1     2    1
     2     2     3   ar
     3     3     4   ar
     4     4     5   ar
     5     5     6    2
     6     5     7   ar
     7     7    16    1
     8    16    17   ar
     9    17    18   ar
    10    18    19    1
    11    18    20   ar
    12    20    21   ar
    13    21    22   ar
    14    22    23    1
    15     4     8    1
    16     8     9    1
    17     9    10    1
    18    10    11    1
    19    11    12    1
    20    11    13    1
    21    13    14    1
    22    13    15    1
    23     7     2   ar
    24    22    16   ar
    25    13     8    1
    26    11     3    1
@<TRIPOS>MOLECULE
*****
 23 26 0 0 0
SMALL
GASTEIGER

@<TRIPOS>ATOM
      1 C          64.4548   87.2961   14.5971 C.3     1  UNL1        0.1518
      2 N          63.8183   88.0526   13.4689 N.ar    1  UNL1       -0.2662
      3 C          63.0747   87.4515   12.3132 C.ar    1  UNL1        0.0541
      4 C          62.6106   88.5704   11.4284 C.ar    1  UNL1        0.0484
      5 C          63.0674   89.8629   12.0374 C.ar    1  UNL1        0.2759
      6 O          62.8210   91.2346   11.4826 O.2     1  UNL1       -0.2655
      7 N          63.8138   89.5428   13.2984 N.ar    1  UNL1       -0.2139
      8 C          61.8669   87.9693   10.2727 C.3     1  UNL1        0.0286
      9 C          61.4100   86.6769    9.6637 C.3     1  UNL1        0.0049
     10 C          61.8742   85.5581   10.5485 C.3     1  UNL1        0.0059
     11 C          62.6178   86.1590   11.7043 C.3     1  UNL1        0.0352
     12 C          63.2543   85.4025   12.8324 C.3     1  UNL1        0.0059
     13 C          62.6134   87.6493   11.5338 C.3     1  UNL1        0.0088
     14 C          63.3885   88.0030   12.7683 C.3     1  UNL1        0.0007
     15 C          62.9528   89.0535   11.9376 C.3     1  UNL1        0.0007
     16 C          64.4450   90.5382   14.2262 C.ar    1  UNL1        0.0954
     17 C          65.6091   91.3626   13.7623 C.ar    1  UNL1        0.0314
     18 C          66.2404   92.3580   14.6900 C.ar    1  UNL1        0.0592
     19 CL         67.4045   93.1824   14.2260 Cl      1  UNL1       -0.0822
     20 C          65.7076   92.5290   16.0817 C.ar    1  UNL1        0.0124
     21 C          64.5434   91.7046   16.5456 C.ar    1  UNL1        0.0138
     22 C          63.9122   90.7092   15.6179 C.ar    1  UNL1        0.0754
     23 CL         62.7481   89.8848   16.0819 Cl      1  UNL1       -0.0807
@<TRIPOS>BOND
     1     1     2    1
     2     2     3   ar
     3     3     4   ar
     4     4     5   ar
     5     5     6    2
     6     5     7   ar
     7     7    16    1
     8    16    17   ar
     9    17    18   ar
    10    18    19    1
    11    18    20   ar
    12    20    21   ar
    13    21    22   ar
    14    22    23    1
    15     4     8    1
    16     8     9    1
    17     9    10    1
    18    10    11    1
    19    11    12    1
    20    11    13    1
    21    13    14    1
    22    13    15    1
    23     7     2   ar
    24    22    16   ar
    25    13     8    1
    26    11     3    1
@<TRIPOS>MOLECULE
*****
 23 26 0 0 0
SMALL
GASTEIGER

@<TRIPOS>ATOM
      1 C          63.8441   89.3509   14.3925 C.3     1  UNL1        0.1518
      2 N          63.9742   90.2621   13.2081 N.ar    1  UNL1       -0.2662
      3 C          64.8176   91.5005   13.1370 C.ar    1  UNL1        0.0541
      4 C          64.6484   92.0987   11.7718 C.ar    1  UNL1        0.0484
      5 C          63.7005   91.2299   10.9993 C.ar    1  UNL1        0.2759
      6 O          63.2486   91.4565    9.5870 O.2     1  UNL1       -0.2655
      7 N          63.2838   90.0949   11.8869 N.ar    1  UNL1       -0.2139
      8 C          65.4917   93.3371   11.7007 C.3     1  UNL1        0.0286
      9 C          66.4396   94.2059   12.4732 C.3     1  UNL1        0.0049
     10 C          66.6088   93.6077   13.8383 C.3     1  UNL1        0.0059
     11 C          65.7654   92.3693   13.9095 C.3     1  UNL1        0.0352
     12 C          65.6354   91.4581   15.0939 C.3     1  UNL1        0.0059
     13 C          65.0751   92.2020   12.5883 C.3     1  UNL1        0.0088
     14 C          64.3230   90.9431   12.9036 C.3     1  UNL1        0.0007
     15 C          64.1641   91.5047   11.6219 C.3     1  UNL1        0.0007
     16 C          62.3421   88.9871   11.5183 C.ar    1  UNL1        0.0954
     17 C          62.8369   87.5724   11.4542 C.ar    1  UNL1        0.0314
     18 C          61.8953   86.4645   11.0856 C.ar    1  UNL1        0.0592
     19 CL         62.3901   85.0499   11.0215 Cl      1  UNL1       -0.0822
     20 C          60.4590   86.7712   10.7811 C.ar    1  UNL1        0.0124
     21 C          59.9642   88.1858   10.8452 C.ar    1  UNL1        0.0138
     22 C          60.9057   89.2937   11.2138 C.ar    1  UNL1        0.0754
     23 CL         60.4110   90.7083   11.2779 Cl      1  UNL1       -0.0807
@<TRIPOS>BOND
     1     1     2    1
     2     2     3   ar
     3     3     4   ar
     4     4     5   ar
     5     5     6    2
     6     5     7   ar
     7     7    16    1
     8    16    17   ar
     9    17    18   ar
    10    18    19    1
    11    18    20   ar
    12    20    21   ar
    13    21    22   ar
    14    22    23    1
    15     4     8    1
    16     8     9    1
    17     9    10    1
    18    10    11    1
    19    11    12    1
    20    11    13    1
    21    13    14    1
    22    13    15    1
    23     7     2   ar
    24    22    16   ar
    25    13     8    1
    26    11     3    1
