@<TRIPOS>MOLECULE
*****
 29 33 0 0 0
SMALL
GASTEIGER

@<TRIPOS>ATOM
      1 C          59.6483   88.9020    7.2088 C.ar    1  UNL1        0.0004
      2 C          59.3178   87.4544    6.9962 C.ar    1  UNL1        0.0031
      3 C          59.8330   86.4194    7.9518 C.ar    1  UNL1        0.0370
      4 C          60.6786   86.8319    9.1200 C.ar    1  UNL1        0.1415
      5 C          61.0091   88.2795    9.3327 C.ar    1  UNL1        0.0698
      6 C          60.4939   89.3145    8.3770 C.ar    1  UNL1        0.0061
      7 C          61.8293   88.9010   10.4239 C.ar    1  UNL1        0.1692
      8 N          62.0881   90.3750   10.5258 N.ar    1  UNL1       -0.1290
      9 N          62.9404   90.6134   11.7369 N.ar    1  UNL1       -0.1330
     10 C          63.2083   89.2868   12.3835 C.ar    1  UNL1        0.1477
     11 N          62.5217   88.2284   11.5721 N.ar    1  UNL1       -0.2945
     12 C          62.5648   86.7682   11.9125 C.3     1  UNL1        0.1559
     13 C          61.9262   85.6199   11.1890 C.3     1  UNL1        0.2298
     14 O          61.0867   85.6483    9.9461 O.3     1  UNL1       -0.4733
     15 C          60.5371   92.5383    3.6049 C.3     1  UNL1        0.0521
     16 C          59.5776   91.7553    4.4512 C.ar    1  UNL1        0.0594
     17 C          60.0927   90.7202    5.4069 C.ar    1  UNL1        0.0147
     18 C          59.1332   89.9372    6.2532 C.ar    1  UNL1        0.0027
     19 C          57.6586   90.1893    6.1439 C.ar    1  UNL1        0.0207
     20 C          57.1435   91.2244    5.1883 C.ar    1  UNL1        0.0984
     21 N          58.1030   92.0074    4.3419 N.ar    1  UNL1       -0.2481
     22 C          64.0204   89.0586   13.6239 C.3     1  UNL1        0.0922
     23 C          64.5269   90.2283   14.4146 C.ar    1  UNL1       -0.0138
     24 C          63.8507   90.6165   15.6961 C.ar    1  UNL1       -0.0038
     25 C          64.3573   91.7863   16.4868 C.ar    1  UNL1        0.0006
     26 C          65.5397   92.5677   15.9960 C.ar    1  UNL1        0.0114
     27 C          66.2159   92.1795   14.7145 C.ar    1  UNL1        0.0574
     28 CL         67.3984   92.9610   14.2237 Cl      1  UNL1       -0.0823
     29 C          65.7094   91.0098   13.9238 C.ar    1  UNL1        0.0076
@<TRIPOS>BOND
     1    15    16    1
     2    16    17   ar
     3    17    18   ar
     4    18     1    1
     5     1     2   ar
     6     2     3   ar
     7     3     4   ar
     8     4     5   ar
     9     5     6   ar
    10     5     7    1
    11     7     8   ar
    12     8     9   ar
    13     9    10   ar
    14    10    22    1
    15    22    23    1
    16    23    24   ar
    17    24    25   ar
    18    25    26   ar
    19    26    27   ar
    20    27    28    1
    21    27    29   ar
    22    10    11   ar
    23    11    12    1
    24    12    13    1
    25    13    14    1
    26    18    19   ar
    27    19    20   ar
    28    20    21   ar
    29    21    16   ar
    30     6     1   ar
    31    11     7   ar
    32    14     4    1
    33    29    23   ar
@<TRIPOS>MOLECULE
*****
 29 33 0 0 0
SMALL
GASTEIGER

@<TRIPOS>ATOM
      1 C          64.3012   90.8046   12.3883 C.ar    1  UNL1        0.0004
      2 C          63.4625   90.9585   11.1544 C.ar    1  UNL1        0.0031
      3 C          62.6154   89.8167   10.6761 C.ar    1  UNL1        0.0370
      4 C          62.6071   88.5210   11.4318 C.ar    1  UNL1        0.1415
      5 C          63.4458   88.3671   12.6658 C.ar    1  UNL1        0.0698
      6 C          64.2929   89.5089   13.1441 C.ar    1  UNL1        0.0061
      7 C          63.5827   87.1710   13.5605 C.ar    1  UNL1        0.1692
      8 N          64.4623   87.1438   14.7752 N.ar    1  UNL1       -0.1290
      9 N          64.3378   85.7892   15.4075 N.ar    1  UNL1       -0.1330
     10 C          63.3812   84.9793   14.5835 C.ar    1  UNL1        0.1477
     11 N          62.9145   85.8332   13.4420 N.ar    1  UNL1       -0.2945
     12 C          61.9445   85.3613   12.3997 C.3     1  UNL1        0.1559
     13 C          61.4031   86.1104   11.2184 C.3     1  UNL1        0.2298
     14 O          61.6980   87.5167   10.7877 O.3     1  UNL1       -0.4733
     15 C          67.1679   93.0324   16.1058 C.3     1  UNL1        0.0521
     16 C          66.5817   93.0603   14.7254 C.ar    1  UNL1        0.0594
     17 C          65.7345   91.9185   14.2471 C.ar    1  UNL1        0.0147
     18 C          65.1484   91.9464   12.8667 C.ar    1  UNL1        0.0027
     19 C          65.4092   93.1160   11.9645 C.ar    1  UNL1        0.0207
     20 C          66.2563   94.2578   12.4428 C.ar    1  UNL1        0.0984
     21 N          66.8426   94.2299   13.8233 N.ar    1  UNL1       -0.2481
     22 C          62.9645   83.5638   14.8537 C.3     1  UNL1        0.0922
     23 C          62.9776   82.5534   13.7451 C.ar    1  UNL1       -0.0138
     24 C          62.3291   81.2153   13.9423 C.ar    1  UNL1       -0.0038
     25 C          62.3423   80.2050   12.8337 C.ar    1  UNL1        0.0006
     26 C          63.0039   80.5327   11.5280 C.ar    1  UNL1        0.0114
     27 C          63.6524   81.8708   11.3309 C.ar    1  UNL1        0.0574
     28 CL         64.3140   82.1986   10.0252 Cl      1  UNL1       -0.0823
     29 C          63.6393   82.8812   12.4395 C.ar    1  UNL1        0.0076
@<TRIPOS>BOND
     1    15    16    1
     2    16    17   ar
     3    17    18   ar
     4    18     1    1
     5     1     2   ar
     6     2     3   ar
     7     3     4   ar
     8     4     5   ar
     9     5     6   ar
    10     5     7    1
    11     7     8   ar
    12     8     9   ar
    13     9    10   ar
    14    10    22    1
    15    22    23    1
    16    23    24   ar
    17    24    25   ar
    18    25    26   ar
    19    26    27   ar
    20    27    28    1
    21    27    29   ar
    22    10    11   ar
    23    11    12    1
    24    12    13    1
    25    13    14    1
    26    18    19   ar
    27    19    20   ar
    28    20    21   ar
    29    21    16   ar
    30     6     1   ar
    31    11     7   ar
    32    14     4    1
    33    29    23   ar
@<TRIPOS>MOLECULE
*****
 29 33 0 0 0
SMALL
GASTEIGER

@<TRIPOS>ATOM
      1 C          62.0999   85.8190   10.3787 C.ar    1  UNL1        0.0004
      2 C          62.4322   84.5471   11.1010 C.ar    1  UNL1        0.0031
      3 C          63.0904   84.5995   12.4478 C.ar    1  UNL1        0.0370
      4 C          63.4162   85.9237   13.0724 C.ar    1  UNL1        0.1415
      5 C          63.0839   87.1957   12.3501 C.ar    1  UNL1        0.0698
      6 C          62.4257   87.1433   11.0033 C.ar    1  UNL1        0.0061
      7 C          63.3208   88.6101   12.7897 C.ar    1  UNL1        0.1692
      8 N          62.9389   89.8057   11.9683 N.ar    1  UNL1       -0.1290
      9 N          63.3306   91.0365   12.7311 N.ar    1  UNL1       -0.1330
     10 C          63.9547   90.6015   14.0238 C.ar    1  UNL1        0.1477
     11 N          63.9486   89.1019   14.0601 N.ar    1  UNL1       -0.2945
     12 C          64.4945   88.3008   15.2047 C.3     1  UNL1        0.1559
     13 C          64.5475   86.8100   15.3617 C.3     1  UNL1        0.2298
     14 O          64.0676   85.7521   14.4126 O.3     1  UNL1       -0.4733
     15 C          62.0907   84.2237    5.4335 C.3     1  UNL1        0.0521
     16 C          61.4371   84.9690    6.5592 C.ar    1  UNL1        0.0594
     17 C          62.0953   85.0214    7.9061 C.ar    1  UNL1        0.0147
     18 C          61.4417   85.7667    9.0318 C.ar    1  UNL1        0.0027
     19 C          60.1299   86.4597    8.8107 C.ar    1  UNL1        0.0207
     20 C          59.4717   86.4074    7.4638 C.ar    1  UNL1        0.0984
     21 N          60.1253   85.6621    6.3380 N.ar    1  UNL1       -0.2481
     22 C          64.4907   91.5072   15.0927 C.3     1  UNL1        0.0922
     23 C          65.9367   91.9059   15.0824 C.ar    1  UNL1       -0.0138
     24 C          66.5209   92.6391   16.2533 C.ar    1  UNL1       -0.0038
     25 C          67.9669   93.0378   16.2429 C.ar    1  UNL1        0.0006
     26 C          68.8286   92.7033   15.0617 C.ar    1  UNL1        0.0114
     27 C          68.2445   91.9701   13.8907 C.ar    1  UNL1        0.0574
     28 CL         69.1062   91.6355   12.7094 Cl      1  UNL1       -0.0823
     29 C          66.7984   91.5714   13.9011 C.ar    1  UNL1        0.0076
@<TRIPOS>BOND
     1    15    16    1
     2    16    17   ar
     3    17    18   ar
     4    18     1    1
     5     1     2   ar
     6     2     3   ar
     7     3     4   ar
     8     4     5   ar
     9     5     6   ar
    10     5     7    1
    11     7     8   ar
    12     8     9   ar
    13     9    10   ar
    14    10    22    1
    15    22    23    1
    16    23    24   ar
    17    24    25   ar
    18    25    26   ar
    19    26    27   ar
    20    27    28    1
    21    27    29   ar
    22    10    11   ar
    23    11    12    1
    24    12    13    1
    25    13    14    1
    26    18    19   ar
    27    19    20   ar
    28    20    21   ar
    29    21    16   ar
    30     6     1   ar
    31    11     7   ar
    32    14     4    1
    33    29    23   ar
@<TRIPOS>MOLECULE
*****
 29 33 0 0 0
SMALL
GASTEIGER

@<TRIPOS>ATOM
      1 C          64.0699   91.2448   11.6733 C.ar    1  UNL1        0.0004
      2 C          63.2462   91.5089   10.4479 C.ar    1  UNL1        0.0031
      3 C          62.3657   90.4306    9.8893 C.ar    1  UNL1        0.0370
      4 C          62.3090   89.0882   10.5562 C.ar    1  UNL1        0.1415
      5 C          63.1327   88.8241   11.7815 C.ar    1  UNL1        0.0698
      6 C          64.0132   89.9024   12.3401 C.ar    1  UNL1        0.0061
      7 C          63.2233   87.5667   12.5944 C.ar    1  UNL1        0.1692
      8 N          64.0923   87.4289   13.8093 N.ar    1  UNL1       -0.1290
      9 N          63.9185   86.0399   14.3484 N.ar    1  UNL1       -0.1330
     10 C          62.9421   85.3194   13.4667 C.ar    1  UNL1        0.1477
     11 N          62.5125   86.2629   12.3827 N.ar    1  UNL1       -0.2945
     12 C          61.5355   85.8945   11.3058 C.3     1  UNL1        0.1559
     13 C          61.0281   86.7388   10.1746 C.3     1  UNL1        0.2298
     14 O          61.3723   88.1602    9.8410 O.3     1  UNL1       -0.4733
     15 C          66.5859   95.7534   11.0882 C.3     1  UNL1        0.0521
     16 C          66.2085   94.5774   11.9394 C.ar    1  UNL1        0.0594
     17 C          65.3279   93.4991   11.3807 C.ar    1  UNL1        0.0147
     18 C          64.9505   92.3231   12.2319 C.ar    1  UNL1        0.0027
     19 C          65.4535   92.2253   13.6416 C.ar    1  UNL1        0.0207
     20 C          66.3340   93.3036   14.2003 C.ar    1  UNL1        0.0984
     21 N          66.7115   94.4797   13.3491 N.ar    1  UNL1       -0.2481
     22 C          62.4771   83.9037   13.6389 C.3     1  UNL1        0.0922
     23 C          62.8065   82.8742   12.5988 C.ar    1  UNL1       -0.0138
     24 C          63.4779   83.2860   11.3222 C.ar    1  UNL1       -0.0038
     25 C          63.8073   82.2564   10.2822 C.ar    1  UNL1        0.0006
     26 C          63.4654   80.8153   10.5188 C.ar    1  UNL1        0.0114
     27 C          62.7941   80.4035   11.7954 C.ar    1  UNL1        0.0574
     28 CL         62.4522   78.9623   12.0321 Cl      1  UNL1       -0.0823
     29 C          62.4646   81.4330   12.8355 C.ar    1  UNL1        0.0076
@<TRIPOS>BOND
     1    15    16    1
     2    16    17   ar
     3    17    18   ar
     4    18     1    1
     5     1     2   ar
     6     2     3   ar
     7     3     4   ar
     8     4     5   ar
     9     5     6   ar
    10     5     7    1
    11     7     8   ar
    12     8     9   ar
    13     9    10   ar
    14    10    22    1
    15    22    23    1
    16    23    24   ar
    17    24    25   ar
    18    25    26   ar
    19    26    27   ar
    20    27    28    1
    21    27    29   ar
    22    10    11   ar
    23    11    12    1
    24    12    13    1
    25    13    14    1
    26    18    19   ar
    27    19    20   ar
    28    20    21   ar
    29    21    16   ar
    30     6     1   ar
    31    11     7   ar
    32    14     4    1
    33    29    23   ar
@<TRIPOS>MOLECULE
*****
 29 33 0 0 0
SMALL
GASTEIGER

@<TRIPOS>ATOM
      1 C          59.7047   88.9405    7.4295 C.ar    1  UNL1        0.0004
      2 C          59.3778   87.4792    7.3429 C.ar    1  UNL1        0.0031
      3 C          59.9428   86.5233    8.3514 C.ar    1  UNL1        0.0370
      4 C          60.8347   87.0288    9.4463 C.ar    1  UNL1        0.1415
      5 C          61.1616   88.4902    9.5329 C.ar    1  UNL1        0.0698
      6 C          60.5966   89.4460    8.5244 C.ar    1  UNL1        0.0061
      7 C          62.0230   89.1980   10.5362 C.ar    1  UNL1        0.1692
      8 N          62.2732   90.6768   10.5136 N.ar    1  UNL1       -0.1290
      9 N          63.1752   91.0121   11.6644 N.ar    1  UNL1       -0.1330
     10 C          63.4824   89.7404   12.3981 C.ar    1  UNL1        0.1477
     11 N          62.7704   88.6193   11.7010 N.ar    1  UNL1       -0.2945
     12 C          62.8409   87.1898   12.1500 C.3     1  UNL1        0.1559
     13 C          62.1814   85.9859   11.5451 C.3     1  UNL1        0.2298
     14 O          61.2886   85.9143   10.3418 O.3     1  UNL1       -0.4733
     15 C          60.4161   92.4973    3.7087 C.3     1  UNL1        0.0521
     16 C          59.4954   91.6749    4.5606 C.ar    1  UNL1        0.0594
     17 C          60.0604   90.7189    5.5691 C.ar    1  UNL1        0.0147
     18 C          59.1396   89.8965    6.4210 C.ar    1  UNL1        0.0027
     19 C          57.6538   90.0300    6.2645 C.ar    1  UNL1        0.0207
     20 C          57.0888   90.9859    5.2561 C.ar    1  UNL1        0.0984
     21 N          58.0095   91.8084    4.4041 N.ar    1  UNL1       -0.2481
     22 C          64.3495   89.6125   13.6155 C.3     1  UNL1        0.0922
     23 C          63.9554   88.6802   14.7225 C.ar    1  UNL1       -0.0138
     24 C          63.2665   89.2142   15.9432 C.ar    1  UNL1       -0.0038
     25 C          62.8724   88.2818   17.0502 C.ar    1  UNL1        0.0006
     26 C          63.1673   86.8156   16.9364 C.ar    1  UNL1        0.0114
     27 C          63.8563   86.2815   15.7157 C.ar    1  UNL1        0.0574
     28 CL         64.1512   84.8153   15.6020 Cl      1  UNL1       -0.0823
     29 C          64.2503   87.2139   14.6087 C.ar    1  UNL1        0.0076
@<TRIPOS>BOND
     1    15    16    1
     2    16    17   ar
     3    17    18   ar
     4    18     1    1
     5     1     2   ar
     6     2     3   ar
     7     3     4   ar
     8     4     5   ar
     9     5     6   ar
    10     5     7    1
    11     7     8   ar
    12     8     9   ar
    13     9    10   ar
    14    10    22    1
    15    22    23    1
    16    23    24   ar
    17    24    25   ar
    18    25    26   ar
    19    26    27   ar
    20    27    28    1
    21    27    29   ar
    22    10    11   ar
    23    11    12    1
    24    12    13    1
    25    13    14    1
    26    18    19   ar
    27    19    20   ar
    28    20    21   ar
    29    21    16   ar
    30     6     1   ar
    31    11     7   ar
    32    14     4    1
    33    29    23   ar
@<TRIPOS>MOLECULE
*****
 29 33 0 0 0
SMALL
GASTEIGER

@<TRIPOS>ATOM
      1 C          64.7519   90.3935   14.8318 C.ar    1  UNL1        0.0004
      2 C          63.8962   90.9488   15.9315 C.ar    1  UNL1        0.0031
      3 C          63.0755   90.0254   16.7821 C.ar    1  UNL1        0.0370
      4 C          63.1105   88.5466   16.5330 C.ar    1  UNL1        0.1415
      5 C          63.9662   87.9913   15.4334 C.ar    1  UNL1        0.0698
      6 C          64.7869   88.9147   14.5828 C.ar    1  UNL1        0.0061
      7 C          64.1451   86.5608   15.0193 C.ar    1  UNL1        0.1692
      8 N          65.0380   86.1319   13.8929 N.ar    1  UNL1       -0.1290
      9 N          64.9572   84.6384   13.7801 N.ar    1  UNL1       -0.1330
     10 C          64.0142   84.1441   14.8368 C.ar    1  UNL1        0.1477
     11 N          63.5123   85.3322   15.6026 N.ar    1  UNL1       -0.2945
     12 C          62.5445   85.2308   16.7441 C.3     1  UNL1        0.1559
     13 C          61.9703   86.3328   17.5842 C.3     1  UNL1        0.2298
     14 O          62.2222   87.8086   17.4902 O.3     1  UNL1       -0.4733
     15 C          65.2779   93.2939   10.5526 C.3     1  UNL1        0.0521
     16 C          65.8357   92.7672   11.8415 C.ar    1  UNL1        0.0594
     17 C          65.0149   91.8437   12.6922 C.ar    1  UNL1        0.0147
     18 C          65.5727   91.3170   13.9811 C.ar    1  UNL1        0.0027
     19 C          66.9514   91.7136   14.4194 C.ar    1  UNL1        0.0207
     20 C          67.7721   92.6370   13.5688 C.ar    1  UNL1        0.0984
     21 N          67.2143   93.1638   12.2798 N.ar    1  UNL1       -0.2481
     22 C          63.6391   82.7130   15.0841 C.3     1  UNL1        0.0922
     23 C          63.3084   81.8140   13.9298 C.ar    1  UNL1       -0.0138
     24 C          62.6381   80.4947   14.1747 C.ar    1  UNL1       -0.0038
     25 C          62.3074   79.5957   13.0203 C.ar    1  UNL1        0.0006
     26 C          62.6470   80.0161   11.6211 C.ar    1  UNL1        0.0114
     27 C          63.3173   81.3354   11.3761 C.ar    1  UNL1        0.0574
     28 CL         63.6570   81.7559    9.9770 Cl      1  UNL1       -0.0823
     29 C          63.6480   82.2344   12.5306 C.ar    1  UNL1        0.0076
@<TRIPOS>BOND
     1    15    16    1
     2    16    17   ar
     3    17    18   ar
     4    18     1    1
     5     1     2   ar
     6     2     3   ar
     7     3     4   ar
     8     4     5   ar
     9     5     6   ar
    10     5     7    1
    11     7     8   ar
    12     8     9   ar
    13     9    10   ar
    14    10    22    1
    15    22    23    1
    16    23    24   ar
    17    24    25   ar
    18    25    26   ar
    19    26    27   ar
    20    27    28    1
    21    27    29   ar
    22    10    11   ar
    23    11    12    1
    24    12    13    1
    25    13    14    1
    26    18    19   ar
    27    19    20   ar
    28    20    21   ar
    29    21    16   ar
    30     6     1   ar
    31    11     7   ar
    32    14     4    1
    33    29    23   ar
@<TRIPOS>MOLECULE
*****
 29 33 0 0 0
SMALL
GASTEIGER

@<TRIPOS>ATOM
      1 C          64.1067   90.6264   13.9822 C.ar    1  UNL1        0.0004
      2 C          63.7413   91.2729   15.2855 C.ar    1  UNL1        0.0031
      3 C          63.4071   90.4239   16.4760 C.ar    1  UNL1        0.0370
      4 C          63.4383   88.9285   16.3633 C.ar    1  UNL1        0.1415
      5 C          63.8037   88.2820   15.0600 C.ar    1  UNL1        0.0698
      6 C          64.1379   89.1310   13.8695 C.ar    1  UNL1        0.0061
      7 C          63.8948   86.8208   14.7340 C.ar    1  UNL1        0.1692
      8 N          64.2744   86.2982   13.3802 N.ar    1  UNL1       -0.1290
      9 N          64.2571   84.7995   13.4402 N.ar    1  UNL1       -0.1330
     10 C          63.8668   84.3958   14.8311 C.ar    1  UNL1        0.1477
     11 N          63.6429   85.6450   15.6307 N.ar    1  UNL1       -0.2945
     12 C          63.2377   85.6401   17.0750 C.3     1  UNL1        0.1559
     13 C          62.9844   86.8097   17.9792 C.3     1  UNL1        0.2298
     14 O          63.0737   88.2733   17.6624 O.3     1  UNL1       -0.4733
     15 C          66.6218   94.6695   11.9016 C.3     1  UNL1        0.0521
     16 C          65.6985   93.4970   11.7513 C.ar    1  UNL1        0.0594
     17 C          65.3642   92.6480   12.9419 C.ar    1  UNL1        0.0147
     18 C          64.4409   91.4754   12.7916 C.ar    1  UNL1        0.0027
     19 C          63.8518   91.1519   11.4506 C.ar    1  UNL1        0.0207
     20 C          64.1860   92.0008   10.2600 C.ar    1  UNL1        0.0984
     21 N          65.1093   93.1734   10.4103 N.ar    1  UNL1       -0.2481
     22 C          63.7254   82.9897   15.3340 C.3     1  UNL1        0.0922
     23 C          63.0096   81.9649   14.5048 C.ar    1  UNL1       -0.0138
     24 C          63.7443   81.2284   13.4242 C.ar    1  UNL1       -0.0038
     25 C          63.0285   80.2036   12.5950 C.ar    1  UNL1        0.0006
     26 C          61.5782   79.9155   12.8465 C.ar    1  UNL1        0.0114
     27 C          60.8434   80.6520   13.9271 C.ar    1  UNL1        0.0574
     28 CL         59.3931   80.3638   14.1785 Cl      1  UNL1       -0.0823
     29 C          61.5593   81.6768   14.7563 C.ar    1  UNL1        0.0076
@<TRIPOS>BOND
     1    15    16    1
     2    16    17   ar
     3    17    18   ar
     4    18     1    1
     5     1     2   ar
     6     2     3   ar
     7     3     4   ar
     8     4     5   ar
     9     5     6   ar
    10     5     7    1
    11     7     8   ar
    12     8     9   ar
    13     9    10   ar
    14    10    22    1
    15    22    23    1
    16    23    24   ar
    17    24    25   ar
    18    25    26   ar
    19    26    27   ar
    20    27    28    1
    21    27    29   ar
    22    10    11   ar
    23    11    12    1
    24    12    13    1
    25    13    14    1
    26    18    19   ar
    27    19    20   ar
    28    20    21   ar
    29    21    16   ar
    30     6     1   ar
    31    11     7   ar
    32    14     4    1
    33    29    23   ar
@<TRIPOS>MOLECULE
*****
 29 33 0 0 0
SMALL
GASTEIGER

@<TRIPOS>ATOM
      1 C          62.6108   85.1929   11.3315 C.ar    1  UNL1        0.0004
      2 C          63.2045   86.1263   12.3444 C.ar    1  UNL1        0.0031
      3 C          62.9214   87.5972   12.2655 C.ar    1  UNL1        0.0370
      4 C          62.0445   88.1347   11.1737 C.ar    1  UNL1        0.1415
      5 C          61.4507   87.2013   10.1607 C.ar    1  UNL1        0.0698
      6 C          61.7339   85.7304   10.2396 C.ar    1  UNL1        0.0061
      7 C          60.5569   87.5258    9.0007 C.ar    1  UNL1        0.1692
      8 N          60.0256   86.4922    8.0523 N.ar    1  UNL1       -0.1290
      9 N          59.1763   87.1916    7.0326 N.ar    1  UNL1       -0.1330
     10 C          59.1829   88.6574    7.3508 C.ar    1  UNL1        0.1477
     11 N          60.0361   88.8640    8.5671 N.ar    1  UNL1       -0.2945
     12 C          60.2804   90.2081    9.1865 C.3     1  UNL1        0.1559
     13 C          61.1059   90.5461   10.3924 C.3     1  UNL1        0.2298
     14 O          61.8910   89.6232   11.2768 O.3     1  UNL1       -0.4733
     15 C          62.2136   80.6622   13.8445 C.3     1  UNL1        0.0521
     16 C          62.6953   81.4566   12.6668 C.ar    1  UNL1        0.0594
     17 C          62.4122   82.9275   12.5880 C.ar    1  UNL1        0.0147
     18 C          62.8939   83.7220   11.4104 C.ar    1  UNL1        0.0027
     19 C          63.6588   83.0455   10.3116 C.ar    1  UNL1        0.0207
     20 C          63.9419   81.5746   10.3904 C.ar    1  UNL1        0.0984
     21 N          63.4602   80.7801   11.5680 N.ar    1  UNL1       -0.2481
     22 C          58.4625   89.7286    6.5867 C.3     1  UNL1        0.0922
     23 C          59.2130   90.5909    5.6156 C.ar    1  UNL1       -0.0138
     24 C          58.5527   91.7985    5.0192 C.ar    1  UNL1       -0.0038
     25 C          59.3033   92.6609    4.0480 C.ar    1  UNL1        0.0006
     26 C          60.7141   92.3155    3.6734 C.ar    1  UNL1        0.0114
     27 C          61.3744   91.1079    4.2697 C.ar    1  UNL1        0.0574
     28 CL         62.7851   90.7626    3.8951 Cl      1  UNL1       -0.0823
     29 C          60.6238   90.2456    5.2409 C.ar    1  UNL1        0.0076
@<TRIPOS>BOND
     1    15    16    1
     2    16    17   ar
     3    17    18   ar
     4    18     1    1
     5     1     2   ar
     6     2     3   ar
     7     3     4   ar
     8     4     5   ar
     9     5     6   ar
    10     5     7    1
    11     7     8   ar
    12     8     9   ar
    13     9    10   ar
    14    10    22    1
    15    22    23    1
    16    23    24   ar
    17    24    25   ar
    18    25    26   ar
    19    26    27   ar
    20    27    28    1
    21    27    29   ar
    22    10    11   ar
    23    11    12    1
    24    12    13    1
    25    13    14    1
    26    18    19   ar
    27    19    20   ar
    28    20    21   ar
    29    21    16   ar
    30     6     1   ar
    31    11     7   ar
    32    14     4    1
    33    29    23   ar
@<TRIPOS>MOLECULE
*****
 29 33 0 0 0
SMALL
GASTEIGER

@<TRIPOS>ATOM
      1 C          63.3181   83.6278   13.7588 C.ar    1  UNL1        0.0004
      2 C          63.8627   83.7771   15.1484 C.ar    1  UNL1        0.0031
      3 C          64.1765   85.1409   15.6884 C.ar    1  UNL1        0.0370
      4 C          63.9457   86.3553   14.8387 C.ar    1  UNL1        0.1415
      5 C          63.4010   86.2060   13.4492 C.ar    1  UNL1        0.0698
      6 C          63.0872   84.8422   12.9092 C.ar    1  UNL1        0.0061
      7 C          63.0988   87.2766   12.4430 C.ar    1  UNL1        0.1692
      8 N          62.5520   86.9945   11.0750 N.ar    1  UNL1       -0.1290
      9 N          62.3820   88.3045   10.3645 N.ar    1  UNL1       -0.1330
     10 C          62.8237   89.3963   11.2933 C.ar    1  UNL1        0.1477
     11 N          63.2667   88.7611   12.5779 N.ar    1  UNL1       -0.2945
     12 C          63.7782   89.5415   13.7524 C.3     1  UNL1        0.1559
     13 C          64.2482   89.0303   15.0819 C.3     1  UNL1        0.2298
     14 O          64.3227   87.6122   15.5654 O.3     1  UNL1       -0.4733
     15 C          63.1702   80.2871    9.7816 C.3     1  UNL1        0.0521
     16 C          62.9303   80.5936   11.2302 C.ar    1  UNL1        0.0594
     17 C          63.2441   81.9574   11.7702 C.ar    1  UNL1        0.0147
     18 C          63.0042   82.2640   13.2188 C.ar    1  UNL1        0.0027
     19 C          62.4505   81.2067   14.1275 C.ar    1  UNL1        0.0207
     20 C          62.1367   79.8429   13.5875 C.ar    1  UNL1        0.0984
     21 N          62.3766   79.5364   12.1388 N.ar    1  UNL1       -0.2481
     22 C          62.8225   90.8655   10.9907 C.3     1  UNL1        0.0922
     23 C          64.0523   91.6851   11.2471 C.ar    1  UNL1       -0.0138
     24 C          64.8021   92.2920   10.0984 C.ar    1  UNL1       -0.0038
     25 C          66.0320   93.1116   10.3549 C.ar    1  UNL1        0.0006
     26 C          66.5119   93.3243   11.7600 C.ar    1  UNL1        0.0114
     27 C          65.7621   92.7175   12.9087 C.ar    1  UNL1        0.0574
     28 CL         66.2421   92.9301   14.3137 Cl      1  UNL1       -0.0823
     29 C          64.5323   91.8978   12.6522 C.ar    1  UNL1        0.0076
@<TRIPOS>BOND
     1    15    16    1
     2    16    17   ar
     3    17    18   ar
     4    18     1    1
     5     1     2   ar
     6     2     3   ar
     7     3     4   ar
     8     4     5   ar
     9     5     6   ar
    10     5     7    1
    11     7     8   ar
    12     8     9   ar
    13     9    10   ar
    14    10    22    1
    15    22    23    1
    16    23    24   ar
    17    24    25   ar
    18    25    26   ar
    19    26    27   ar
    20    27    28    1
    21    27    29   ar
    22    10    11   ar
    23    11    12    1
    24    12    13    1
    25    13    14    1
    26    18    19   ar
    27    19    20   ar
    28    20    21   ar
    29    21    16   ar
    30     6     1   ar
    31    11     7   ar
    32    14     4    1
    33    29    23   ar
