@<TRIPOS>MOLECULE
*****
 52 55 0 0 0
SMALL
GASTEIGER

@<TRIPOS>ATOM
      1 C          62.8233   90.1328   10.9038 C.3     1  UNL1        0.0760
      2 C          61.1325   88.3622   10.0343 C.2     1  UNL1        0.2403
      3 O          59.9956   89.2756   10.3852 O.2     1  UNL1       -0.2733
      4 N          62.5464   88.7908   10.2936 N.am    1  UNL1       -0.3043
      5 H          63.2926   88.1914   10.0633 H       1  UNL1        0.1494
      6 C          60.8555   87.0203    9.4240 C.3     1  UNL1        0.1496
      7 N          63.1460   83.9181   10.3624 N.am    1  UNL1       -0.2567
      8 C          64.4537   83.3088    9.9517 C.3     1  UNL1        0.1168
      9 C          62.6546   85.1645    9.6879 C.2     1  UNL1        0.3046
     10 O          63.4709   85.8017    8.6027 O.2     1  UNL1       -0.2526
     11 N          61.3469   85.7738   10.0986 N.am    1  UNL1       -0.2824
     12 H          60.8111   85.3556   10.8108 H       1  UNL1        0.1514
     13 C          62.3296   83.2810   11.4476 C.3     1  UNL1        0.1413
     14 C          62.8365   84.4339   15.1190 C.ar    1  UNL1        0.0875
     15 N          62.2207   84.6123   13.7630 N.ar    1  UNL1       -0.2453
     16 C          62.6983   83.4930   12.8861 C.ar    1  UNL1        0.0858
     17 C          63.6093   82.6227   13.7002 C.ar    1  UNL1        0.0530
     18 S          63.6947   83.2042   15.0803 S.2     1  UNL1       -0.0705
     19 C          63.7656   85.5974   17.2482 C.3     1  UNL1        0.0069
     20 C          62.6303   85.3282   16.3056 C.3     1  UNL1        0.0465
     21 C          61.2887   85.9532   16.5495 C.3     1  UNL1        0.0069
     22 C          60.0873   86.9247    8.1393 C.3     1  UNL1        0.0270
     23 C          60.1309   85.6616    7.3315 C.3     1  UNL1        0.0022
     24 C          59.2754   88.0923    7.6624 C.3     1  UNL1        0.0022
     25 C          63.5864   91.1660   10.1291 C.3     1  UNL1        0.0216
     26 C          64.0643   92.4134   10.8113 C.3     1  UNL1        0.0217
     27 C          65.4458   92.4678   11.3933 C.3     1  UNL1        0.0792
     28 N          66.4122   93.5190   10.9341 N.am    1  UNL1       -0.2720
     29 C          67.5239   93.1567    9.9944 C.2     1  UNL1        0.4020
     30 O          67.6692   91.7431    9.5141 O.2     1  UNL1       -0.2264
     31 H          66.3169   94.4468   11.2494 H       1  UNL1        0.1527
     32 O          68.4904   94.2079    9.5352 O.3     1  UNL1       -0.4262
     33 C          67.9838   95.4526    8.8689 C.3     1  UNL1        0.2753
     34 C          66.6380   96.0047    9.2349 C.ar    1  UNL1        0.1880
     35 C          65.5283   96.3288    8.2791 C.ar    1  UNL1        0.1389
     36 N          64.3700   96.8540    9.0744 N.ar    1  UNL1       -0.2028
     37 C          64.7638   96.8544   10.5218 C.ar    1  UNL1        0.2849
     38 O          66.1655   96.3295   10.6210 O.2     1  UNL1       -0.4317
     39 C          65.8607   91.4710   12.4345 C.3     1  UNL1        0.0460
     40 C          66.5739   91.9311   13.6713 C.ar    1  UNL1       -0.0205
     41 C          68.0685   92.0581   13.6719 C.ar    1  UNL1       -0.0042
     42 C          68.7816   92.5182   14.9087 C.ar    1  UNL1       -0.0003
     43 C          68.0001   92.8514   16.1449 C.ar    1  UNL1       -0.0000
     44 C          66.5056   92.7244   16.1444 C.ar    1  UNL1       -0.0003
     45 C          65.7924   92.2642   14.9076 C.ar    1  UNL1       -0.0042
     46 C          62.3372   90.4416   12.2889 C.3     1  UNL1        0.0459
     47 C          62.9584   89.7591   13.4714 C.ar    1  UNL1       -0.0205
     48 C          62.7748   90.3274   14.8473 C.ar    1  UNL1       -0.0042
     49 C          63.3961   89.6449   16.0298 C.ar    1  UNL1       -0.0003
     50 C          64.2010   88.3941   15.8363 C.ar    1  UNL1       -0.0000
     51 C          64.3847   87.8257   14.4603 C.ar    1  UNL1       -0.0003
     52 C          63.7634   88.5082   13.2779 C.ar    1  UNL1       -0.0042
@<TRIPOS>BOND
     1    19    20    1
     2    20    21    1
     3    20    14    1
     4    14    15   ar
     5    15    16   ar
     6    16    13    1
     7    13     7    1
     8     7     8    1
     9     7     9   am
    10     9    10    2
    11     9    11   am
    12     6    11    1
    13     6     2    1
    14     2     3    2
    15     2     4   am
    16     4     1    1
    17     1    25    1
    18    25    26    1
    19    27    26    1
    20    27    39    1
    21    39    40    1
    22    40    41   ar
    23    41    42   ar
    24    42    43   ar
    25    43    44   ar
    26    44    45   ar
    27    27    28    1
    28    28    29   am
    29    29    30    2
    30    29    32    1
    31    32    33    1
    32    33    34    1
    33    34    35   ar
    34    35    36   ar
    35    36    37   ar
    36    37    38   ar
    37     1    46    1
    38    46    47    1
    39    47    48   ar
    40    48    49   ar
    41    49    50   ar
    42    50    51   ar
    43    51    52   ar
    44     6    22    1
    45    22    23    1
    46    22    24    1
    47    16    17   ar
    48    17    18   ar
    49    18    14   ar
    50    45    40   ar
    51    38    34   ar
    52    52    47   ar
    53    11    12    1
    54     4     5    1
    55    28    31    1
@<TRIPOS>MOLECULE
*****
 52 55 0 0 0
SMALL
GASTEIGER

@<TRIPOS>ATOM
      1 C          62.7337   89.8916   10.8657 C.3     1  UNL1        0.0760
      2 C          63.5641   90.2739   13.2977 C.2     1  UNL1        0.2403
      3 O          63.0594   91.6855   13.2482 O.2     1  UNL1       -0.2733
      4 N          63.4012   89.3769   12.1065 N.am    1  UNL1       -0.3043
      5 H          63.7325   88.4503   12.1390 H       1  UNL1        0.1494
      6 C          64.2316   89.7591   14.5384 C.3     1  UNL1        0.1496
      7 N          63.4251   86.2163   16.1347 N.am    1  UNL1       -0.2567
      8 C          62.5350   85.6224   17.1859 C.3     1  UNL1        0.1168
      9 C          63.3833   87.6907   15.8621 C.2     1  UNL1        0.3046
     10 O          62.4515   88.5713   16.6408 O.2     1  UNL1       -0.2526
     11 N          64.2734   88.2846   14.8109 N.am    1  UNL1       -0.2824
     12 H          64.8850   87.7067   14.2999 H       1  UNL1        0.1514
     13 C          64.3569   85.3358   15.3560 C.3     1  UNL1        0.1413
     14 C          63.1904   82.7784   12.6794 C.ar    1  UNL1        0.0875
     15 N          63.7372   83.0931   14.0402 N.ar    1  UNL1       -0.2453
     16 C          63.8538   84.5837   14.1596 C.ar    1  UNL1        0.0858
     17 C          63.3791   85.1904   12.8725 C.ar    1  UNL1        0.0530
     18 S          62.9690   84.0747   11.9576 S.2     1  UNL1       -0.0705
     19 C          63.1303   81.1211   10.6794 C.3     1  UNL1        0.0069
     20 C          62.9135   81.4081   12.1356 C.3     1  UNL1        0.0465
     21 C          62.4197   80.3248   13.0481 C.3     1  UNL1        0.0069
     22 C          64.8574   90.7188   15.5066 C.3     1  UNL1        0.0270
     23 C          66.3508   90.8297   15.5934 C.3     1  UNL1        0.0022
     24 C          63.9898   91.5676   16.3879 C.3     1  UNL1        0.0022
     25 C          63.4480   90.8691    9.9802 C.3     1  UNL1        0.0216
     26 C          63.9657   92.1569   10.5490 C.3     1  UNL1        0.0217
     27 C          65.4359   92.4528   10.5189 C.3     1  UNL1        0.0792
     28 N          65.9697   93.5089    9.5971 N.am    1  UNL1       -0.2720
     29 C          67.3848   93.4300    9.1057 C.2     1  UNL1        0.4020
     30 O          68.2660   92.2950    9.5360 O.2     1  UNL1       -0.2264
     31 H          65.3913   94.2538    9.3147 H       1  UNL1        0.1527
     32 O          67.9185   94.4861    8.1839 O.3     1  UNL1       -0.4262
     33 C          67.5125   95.9182    8.3691 C.3     1  UNL1        0.2753
     34 C          66.5349   96.2874    9.4452 C.ar    1  UNL1        0.1880
     35 C          66.8585   96.5045   10.8937 C.ar    1  UNL1        0.1389
     36 N          65.5856   96.8557   11.6054 N.ar    1  UNL1       -0.2028
     37 C          64.4754   96.8557   10.5968 C.ar    1  UNL1        0.2849
     38 O          65.0621   96.5045    9.2617 O.2     1  UNL1       -0.4317
     39 C          66.3724   91.6925   11.4105 C.3     1  UNL1        0.0460
     40 C          66.9431   92.3490   12.6326 C.ar    1  UNL1       -0.0205
     41 C          66.1945   93.4611   13.3054 C.ar    1  UNL1       -0.0042
     42 C          66.7653   94.1175   14.5274 C.ar    1  UNL1       -0.0003
     43 C          68.0847   93.6618   15.0766 C.ar    1  UNL1       -0.0000
     44 C          68.8333   92.5497   14.4037 C.ar    1  UNL1       -0.0003
     45 C          68.2625   91.8933   13.1817 C.ar    1  UNL1       -0.0042
     46 C          61.3517   89.4288   10.5105 C.3     1  UNL1        0.0459
     47 C          61.1660   88.2442    9.6092 C.ar    1  UNL1       -0.0205
     48 C          59.9103   88.1068    8.8003 C.ar    1  UNL1       -0.0042
     49 C          59.7246   86.9223    7.8990 C.ar    1  UNL1       -0.0003
     50 C          60.7946   85.8751    7.8066 C.ar    1  UNL1       -0.0000
     51 C          62.0504   86.0125    8.6156 C.ar    1  UNL1       -0.0003
     52 C          62.2361   87.1970    9.5169 C.ar    1  UNL1       -0.0042
@<TRIPOS>BOND
     1    19    20    1
     2    20    21    1
     3    20    14    1
     4    14    15   ar
     5    15    16   ar
     6    16    13    1
     7    13     7    1
     8     7     8    1
     9     7     9   am
    10     9    10    2
    11     9    11   am
    12     6    11    1
    13     6     2    1
    14     2     3    2
    15     2     4   am
    16     4     1    1
    17     1    25    1
    18    25    26    1
    19    27    26    1
    20    27    39    1
    21    39    40    1
    22    40    41   ar
    23    41    42   ar
    24    42    43   ar
    25    43    44   ar
    26    44    45   ar
    27    27    28    1
    28    28    29   am
    29    29    30    2
    30    29    32    1
    31    32    33    1
    32    33    34    1
    33    34    35   ar
    34    35    36   ar
    35    36    37   ar
    36    37    38   ar
    37     1    46    1
    38    46    47    1
    39    47    48   ar
    40    48    49   ar
    41    49    50   ar
    42    50    51   ar
    43    51    52   ar
    44     6    22    1
    45    22    23    1
    46    22    24    1
    47    16    17   ar
    48    17    18   ar
    49    18    14   ar
    50    45    40   ar
    51    38    34   ar
    52    52    47   ar
    53    11    12    1
    54     4     5    1
    55    28    31    1
@<TRIPOS>MOLECULE
*****
 52 55 0 0 0
SMALL
GASTEIGER

@<TRIPOS>ATOM
      1 C          61.9463   89.8880   10.6990 C.3     1  UNL1        0.0760
      2 C          61.6626   87.3710   11.2776 C.2     1  UNL1        0.2403
      3 O          60.3498   87.6709   11.9383 O.2     1  UNL1       -0.2733
      4 N          62.4609   88.4796   10.6580 N.am    1  UNL1       -0.3043
      5 H          63.3226   88.2828   10.2243 H       1  UNL1        0.1494
      6 C          62.1772   85.9627   11.2366 C.3     1  UNL1        0.1496
      7 N          63.1099   84.6046   14.8471 N.am    1  UNL1       -0.2567
      8 C          64.0546   84.9210   15.9684 C.3     1  UNL1        0.1168
      9 C          63.1159   85.4418   13.6025 C.2     1  UNL1        0.3046
     10 O          64.0667   86.5955   13.4792 O.2     1  UNL1       -0.2526
     11 N          62.1712   85.1254   12.4812 N.am    1  UNL1       -0.2824
     12 H          61.5472   84.3682   12.5621 H       1  UNL1        0.1514
     13 C          62.1592   83.4510   14.9703 C.3     1  UNL1        0.1413
     14 C          62.7359   80.9050   12.0979 C.ar    1  UNL1        0.0875
     15 N          62.7638   82.3066   12.6316 N.ar    1  UNL1       -0.2453
     16 C          62.2895   82.2704   14.0541 C.ar    1  UNL1        0.0858
     17 C          61.9684   80.8465   14.3996 C.ar    1  UNL1        0.0530
     18 S          62.2443   80.0026   13.1907 S.2     1  UNL1       -0.0705
     19 C          63.8980   81.4194    9.8318 C.3     1  UNL1        0.0069
     20 C          63.1303   80.4803   10.7144 C.3     1  UNL1        0.0465
     21 C          62.7571   79.1166   10.2134 C.3     1  UNL1        0.0069
     22 C          62.6978   85.3916    9.9510 C.3     1  UNL1        0.0270
     23 C          63.6709   84.2503    9.9770 C.3     1  UNL1        0.0022
     24 C          62.2454   85.9617    8.6395 C.3     1  UNL1        0.0022
     25 C          62.7963   90.9805   11.2769 C.3     1  UNL1        0.0216
     26 C          63.9057   91.5775   10.4629 C.3     1  UNL1        0.0217
     27 C          65.1192   92.1367   11.1449 C.3     1  UNL1        0.0792
     28 N          65.1289   92.3106   12.6347 N.am    1  UNL1       -0.2720
     29 C          66.4222   92.2322   13.3906 C.2     1  UNL1        0.4020
     30 O          67.7057   91.9800   12.6566 O.2     1  UNL1       -0.2264
     31 H          64.2864   92.4762   13.1165 H       1  UNL1        0.1527
     32 O          66.4319   92.4062   14.8804 O.3     1  UNL1       -0.4262
     33 C          65.1449   92.3589   15.6494 C.3     1  UNL1        0.2753
     34 C          64.3967   91.0655   15.7807 C.ar    1  UNL1        0.1880
     35 C          64.5501   89.8644   14.8954 C.ar    1  UNL1        0.1389
     36 N          63.6119   88.8027   15.3878 N.ar    1  UNL1       -0.2028
     37 C          62.8785   89.3476   16.5775 C.ar    1  UNL1        0.2849
     38 O          63.3636   90.7461   16.8202 O.2     1  UNL1       -0.4317
     39 C          66.3228   92.5219   10.3370 C.3     1  UNL1        0.0460
     40 C          66.5928   93.9663   10.0353 C.ar    1  UNL1       -0.0205
     41 C          66.1526   95.0286   10.9984 C.ar    1  UNL1       -0.0042
     42 C          66.4226   96.4729   10.6967 C.ar    1  UNL1       -0.0003
     43 C          67.1327   96.8548    9.4319 C.ar    1  UNL1       -0.0000
     44 C          67.5729   95.7925    8.4688 C.ar    1  UNL1       -0.0003
     45 C          67.3030   94.3482    8.7705 C.ar    1  UNL1       -0.0042
     46 C          60.5817   90.2038   10.1621 C.3     1  UNL1        0.0459
     47 C          60.0428   89.4416    8.9880 C.ar    1  UNL1       -0.0205
     48 C          60.0421   90.0665    7.6244 C.ar    1  UNL1       -0.0042
     49 C          59.5032   89.3043    6.4503 C.ar    1  UNL1       -0.0003
     50 C          58.9650   87.9171    6.6397 C.ar    1  UNL1       -0.0000
     51 C          58.9657   87.2920    8.0034 C.ar    1  UNL1       -0.0003
     52 C          59.5046   88.0543    9.1775 C.ar    1  UNL1       -0.0042
@<TRIPOS>BOND
     1    19    20    1
     2    20    21    1
     3    20    14    1
     4    14    15   ar
     5    15    16   ar
     6    16    13    1
     7    13     7    1
     8     7     8    1
     9     7     9   am
    10     9    10    2
    11     9    11   am
    12     6    11    1
    13     6     2    1
    14     2     3    2
    15     2     4   am
    16     4     1    1
    17     1    25    1
    18    25    26    1
    19    27    26    1
    20    27    39    1
    21    39    40    1
    22    40    41   ar
    23    41    42   ar
    24    42    43   ar
    25    43    44   ar
    26    44    45   ar
    27    27    28    1
    28    28    29   am
    29    29    30    2
    30    29    32    1
    31    32    33    1
    32    33    34    1
    33    34    35   ar
    34    35    36   ar
    35    36    37   ar
    36    37    38   ar
    37     1    46    1
    38    46    47    1
    39    47    48   ar
    40    48    49   ar
    41    49    50   ar
    42    50    51   ar
    43    51    52   ar
    44     6    22    1
    45    22    23    1
    46    22    24    1
    47    16    17   ar
    48    17    18   ar
    49    18    14   ar
    50    45    40   ar
    51    38    34   ar
    52    52    47   ar
    53    11    12    1
    54     4     5    1
    55    28    31    1
@<TRIPOS>MOLECULE
*****
 52 55 0 0 0
SMALL
GASTEIGER

@<TRIPOS>ATOM
      1 C          61.9808   88.0432   11.2065 C.3     1  UNL1        0.0760
      2 C          63.3496   89.8218   12.5155 C.2     1  UNL1        0.2403
      3 O          63.3307   90.7202   11.3145 O.2     1  UNL1       -0.2733
      4 N          62.6746   88.4833   12.4615 N.am    1  UNL1       -0.3043
      5 H          62.6870   87.8936   13.2498 H       1  UNL1        0.1494
      6 C          64.0433   90.2619   13.7705 C.3     1  UNL1        0.1496
      7 N          66.9351   92.9130   14.3696 N.am    1  UNL1       -0.2567
      8 C          68.3319   92.9638   14.9142 C.3     1  UNL1        0.1168
      9 C          66.1876   91.6129   14.3423 C.2     1  UNL1        0.3046
     10 O          66.8368   90.3634   14.8596 O.2     1  UNL1       -0.2526
     11 N          64.7909   91.5621   13.7978 N.am    1  UNL1       -0.2824
     12 H          64.3648   92.3821   13.4583 H       1  UNL1        0.1514
     13 C          66.2859   94.1624   13.8524 C.3     1  UNL1        0.1413
     14 C          67.1196   94.5628   10.0827 C.ar    1  UNL1        0.0875
     15 N          67.0905   93.7423   11.3381 N.ar    1  UNL1       -0.2453
     16 C          66.5020   94.5861   12.4297 C.ar    1  UNL1        0.0858
     17 C          66.1674   95.9281   11.8490 C.ar    1  UNL1        0.0530
     18 S          66.5491   95.9137   10.3985 S.2     1  UNL1       -0.0705
     19 C          68.4458   92.8575    8.6392 C.3     1  UNL1        0.0069
     20 C          67.6297   94.1116    8.7462 C.3     1  UNL1        0.0465
     21 C          67.3238   94.9144    7.5167 C.3     1  UNL1        0.0069
     22 C          63.9896   89.4017   14.9982 C.3     1  UNL1        0.0270
     23 C          64.5167   87.9981   14.9542 C.3     1  UNL1        0.0022
     24 C          63.4088   89.9453   16.2699 C.3     1  UNL1        0.0022
     25 C          62.6021   86.9922   10.3352 C.3     1  UNL1        0.0216
     26 C          62.0717   85.5894   10.3581 C.3     1  UNL1        0.0217
     27 C          62.7106   84.5602   11.2429 C.3     1  UNL1        0.0792
     28 N          63.2835   84.9632   12.5693 N.am    1  UNL1       -0.2720
     29 C          64.5568   84.3381   13.0574 C.2     1  UNL1        0.4020
     30 O          65.2571   83.3101   12.2190 O.2     1  UNL1       -0.2264
     31 H          62.8239   85.6379   13.1196 H       1  UNL1        0.1527
     32 O          65.1297   84.7410   14.3838 O.3     1  UNL1       -0.4262
     33 C          64.4883   84.2651   15.6535 C.3     1  UNL1        0.2753
     34 C          63.4097   85.0821   16.3009 C.ar    1  UNL1        0.1880
     35 C          61.9479   85.0344   15.9684 C.ar    1  UNL1        0.1389
     36 N          61.2382   86.0131   16.8565 N.ar    1  UNL1       -0.2028
     37 C          62.2616   86.6656   17.7380 C.ar    1  UNL1        0.2849
     38 O          63.6036   86.0902   17.3946 O.2     1  UNL1       -0.4317
     39 C          62.7766   83.1283   10.8012 C.3     1  UNL1        0.0460
     40 C          62.5279   82.0267   11.7885 C.ar    1  UNL1       -0.0205
     41 C          61.9475   82.3431   13.1349 C.ar    1  UNL1       -0.0042
     42 C          61.6988   81.2415   14.1221 C.ar    1  UNL1       -0.0003
     43 C          62.0305   79.8234   13.7628 C.ar    1  UNL1       -0.0000
     44 C          62.6108   79.5070   12.4163 C.ar    1  UNL1       -0.0003
     45 C          62.8595   80.6086   11.4292 C.ar    1  UNL1       -0.0042
     46 C          60.6657   88.6543   10.8229 C.3     1  UNL1        0.0459
     47 C          60.1036   88.4245    9.4513 C.ar    1  UNL1       -0.0205
     48 C          59.4887   87.1009    9.1049 C.ar    1  UNL1       -0.0042
     49 C          58.9266   86.8711    7.7333 C.ar    1  UNL1       -0.0003
     50 C          58.9794   87.9648    6.7082 C.ar    1  UNL1       -0.0000
     51 C          59.5943   89.2884    7.0546 C.ar    1  UNL1       -0.0003
     52 C          60.1564   89.5183    8.4262 C.ar    1  UNL1       -0.0042
@<TRIPOS>BOND
     1    19    20    1
     2    20    21    1
     3    20    14    1
     4    14    15   ar
     5    15    16   ar
     6    16    13    1
     7    13     7    1
     8     7     8    1
     9     7     9   am
    10     9    10    2
    11     9    11   am
    12     6    11    1
    13     6     2    1
    14     2     3    2
    15     2     4   am
    16     4     1    1
    17     1    25    1
    18    25    26    1
    19    27    26    1
    20    27    39    1
    21    39    40    1
    22    40    41   ar
    23    41    42   ar
    24    42    43   ar
    25    43    44   ar
    26    44    45   ar
    27    27    28    1
    28    28    29   am
    29    29    30    2
    30    29    32    1
    31    32    33    1
    32    33    34    1
    33    34    35   ar
    34    35    36   ar
    35    36    37   ar
    36    37    38   ar
    37     1    46    1
    38    46    47    1
    39    47    48   ar
    40    48    49   ar
    41    49    50   ar
    42    50    51   ar
    43    51    52   ar
    44     6    22    1
    45    22    23    1
    46    22    24    1
    47    16    17   ar
    48    17    18   ar
    49    18    14   ar
    50    45    40   ar
    51    38    34   ar
    52    52    47   ar
    53    11    12    1
    54     4     5    1
    55    28    31    1
@<TRIPOS>MOLECULE
*****
 52 55 0 0 0
SMALL
GASTEIGER

@<TRIPOS>ATOM
      1 C          62.4353   86.7124   11.7598 C.3     1  UNL1        0.0760
      2 C          63.2932   89.0491   12.5041 C.2     1  UNL1        0.2403
      3 O          63.0526   88.6807   13.9381 O.2     1  UNL1       -0.2733
      4 N          62.9845   88.0650   11.4149 N.am    1  UNL1       -0.3043
      5 H          63.1424   88.3068   10.4737 H       1  UNL1        0.1494
      6 C          63.8424   90.4017   12.1592 C.3     1  UNL1        0.1496
      7 N          66.1426   91.9738   14.9854 N.am    1  UNL1       -0.2567
      8 C          66.0195   92.5025   16.3838 C.3     1  UNL1        0.1168
      9 C          64.9310   91.4521   14.2715 C.2     1  UNL1        0.3046
     10 O          63.5962   91.4590   14.9559 O.2     1  UNL1       -0.2526
     11 N          65.0541   90.9234   12.8731 N.am    1  UNL1       -0.2824
     12 H          65.9301   90.9189   12.4239 H       1  UNL1        0.1514
     13 C          67.4773   91.9669   14.3010 C.3     1  UNL1        0.1413
     14 C          67.3109   93.5644   10.7674 C.ar    1  UNL1        0.0875
     15 N          66.9444   93.5603   12.2220 N.ar    1  UNL1       -0.2453
     16 C          67.5819   92.3603   12.8572 C.ar    1  UNL1        0.0858
     17 C          68.3425   91.6228   11.7953 C.ar    1  UNL1        0.0530
     18 S          68.1750   92.3669   10.5037 S.2     1  UNL1       -0.0705
     19 C          67.5189   94.6001    8.3938 C.3     1  UNL1        0.0069
     20 C          66.8876   94.5865    9.7544 C.3     1  UNL1        0.0465
     21 C          65.8330   95.5950   10.1020 C.3     1  UNL1        0.0069
     22 C          63.1800   91.2324   11.1005 C.3     1  UNL1        0.0270
     23 C          63.9863   92.2163   10.3055 C.3     1  UNL1        0.0022
     24 C          61.7114   91.0793   10.8367 C.3     1  UNL1        0.0022
     25 C          61.0393   86.3438   11.3532 C.3     1  UNL1        0.0216
     26 C          60.1296   87.3829   10.7678 C.3     1  UNL1        0.0217
     27 C          60.0085   87.5209    9.2790 C.3     1  UNL1        0.0792
     28 N          60.1978   88.8610    8.6322 N.am    1  UNL1       -0.2720
     29 C          59.3435   89.2577    7.4647 C.2     1  UNL1        0.4020
     30 O          58.3000   88.3143    6.9442 O.2     1  UNL1       -0.2264
     31 H          60.8828   89.4802    8.9739 H       1  UNL1        0.1527
     32 O          59.5329   90.5977    6.8179 O.3     1  UNL1       -0.4262
     33 C          58.8797   90.8936    5.5004 C.3     1  UNL1        0.2753
     34 C          59.6287   91.6527    4.4456 C.ar    1  UNL1        0.1880
     35 C          61.1073   91.5945    4.2000 C.ar    1  UNL1        0.1389
     36 N          61.4232   92.5091    3.0537 N.ar    1  UNL1       -0.2028
     37 C          60.1397   93.1324    2.5909 C.ar    1  UNL1        0.2849
     38 O          59.0307   92.6032    3.4511 O.2     1  UNL1       -0.4317
     39 C          59.6980   86.3189    8.4372 C.3     1  UNL1        0.0460
     40 C          60.7959   85.6251    7.6866 C.ar    1  UNL1       -0.0205
     41 C          60.4859   84.8827    6.4206 C.ar    1  UNL1       -0.0042
     42 C          61.5838   84.1889    5.6701 C.ar    1  UNL1       -0.0003
     43 C          62.9916   84.2377    6.1854 C.ar    1  UNL1       -0.0000
     44 C          63.3016   84.9801    7.4513 C.ar    1  UNL1       -0.0003
     45 C          62.2038   85.6739    8.2019 C.ar    1  UNL1       -0.0042
     46 C          63.2820   85.7284   12.5114 C.3     1  UNL1        0.0459
     47 C          63.2295   84.2712   12.1596 C.ar    1  UNL1       -0.0205
     48 C          62.6007   83.2931   13.1072 C.ar    1  UNL1       -0.0042
     49 C          62.5482   81.8359   12.7554 C.ar    1  UNL1       -0.0003
     50 C          63.1245   81.3568   11.4561 C.ar    1  UNL1       -0.0000
     51 C          63.7533   82.3349   10.5084 C.ar    1  UNL1       -0.0003
     52 C          63.8058   83.7921   10.8602 C.ar    1  UNL1       -0.0042
@<TRIPOS>BOND
     1    19    20    1
     2    20    21    1
     3    20    14    1
     4    14    15   ar
     5    15    16   ar
     6    16    13    1
     7    13     7    1
     8     7     8    1
     9     7     9   am
    10     9    10    2
    11     9    11   am
    12     6    11    1
    13     6     2    1
    14     2     3    2
    15     2     4   am
    16     4     1    1
    17     1    25    1
    18    25    26    1
    19    27    26    1
    20    27    39    1
    21    39    40    1
    22    40    41   ar
    23    41    42   ar
    24    42    43   ar
    25    43    44   ar
    26    44    45   ar
    27    27    28    1
    28    28    29   am
    29    29    30    2
    30    29    32    1
    31    32    33    1
    32    33    34    1
    33    34    35   ar
    34    35    36   ar
    35    36    37   ar
    36    37    38   ar
    37     1    46    1
    38    46    47    1
    39    47    48   ar
    40    48    49   ar
    41    49    50   ar
    42    50    51   ar
    43    51    52   ar
    44     6    22    1
    45    22    23    1
    46    22    24    1
    47    16    17   ar
    48    17    18   ar
    49    18    14   ar
    50    45    40   ar
    51    38    34   ar
    52    52    47   ar
    53    11    12    1
    54     4     5    1
    55    28    31    1
@<TRIPOS>MOLECULE
*****
 52 55 0 0 0
SMALL
GASTEIGER

@<TRIPOS>ATOM
      1 C          62.2877   87.7447   11.2949 C.3     1  UNL1        0.0760
      2 C          60.6832   88.3886    9.3556 C.2     1  UNL1        0.2403
      3 O          60.0543   89.4374   10.2241 O.2     1  UNL1       -0.2733
      4 N          61.7999   87.5422    9.8910 N.am    1  UNL1       -0.3043
      5 H          62.2127   86.8538    9.3209 H       1  UNL1        0.1494
      6 C          60.1954   88.1861    7.9516 C.3     1  UNL1        0.1496
      7 N          58.9703   90.9893    5.4235 N.am    1  UNL1       -0.2567
      8 C          57.6892   91.5140    4.8462 C.3     1  UNL1        0.1168
      9 C          58.9423   89.8501    6.3989 C.2     1  UNL1        0.3046
     10 O          57.6331   89.2355    6.7969 O.2     1  UNL1       -0.2526
     11 N          60.2235   89.3254    6.9762 N.am    1  UNL1       -0.2824
     12 H          61.0827   89.7287    6.7150 H       1  UNL1        0.1514
     13 C          60.2795   91.6038    5.0256 C.3     1  UNL1        0.1413
     14 C          59.9692   93.3065    1.5513 C.ar    1  UNL1        0.0875
     15 N          59.3646   92.8547    2.8476 N.ar    1  UNL1       -0.2453
     16 C          60.4433   92.2007    3.6591 C.ar    1  UNL1        0.0858
     17 C          61.7146   92.2482    2.8644 C.ar    1  UNL1        0.0530
     18 S          61.4217   92.9316    1.5617 S.2     1  UNL1       -0.0705
     19 C          59.3501   95.5000    0.3042 C.3     1  UNL1        0.0069
     20 C          59.2481   94.0096    0.4397 C.3     1  UNL1        0.0465
     21 C          58.4249   93.2224   -0.5363 C.3     1  UNL1        0.0069
     22 C          59.6796   86.8444    7.5230 C.3     1  UNL1        0.0270
     23 C          58.2517   86.4699    7.7890 C.3     1  UNL1        0.0022
     24 C          60.5918   85.8772    6.8285 C.3     1  UNL1        0.0022
     25 C          62.7546   89.0993   11.7386 C.3     1  UNL1        0.0216
     26 C          63.9277   89.2217   12.6654 C.3     1  UNL1        0.0217
     27 C          63.9868   90.3469   13.6558 C.3     1  UNL1        0.0792
     28 N          64.4370   91.7089   13.2174 N.am    1  UNL1       -0.2720
     29 C          65.8151   92.1904   13.5626 C.2     1  UNL1        0.4020
     30 O          66.7430   91.3099   14.3460 O.2     1  UNL1       -0.2264
     31 H          63.8281   92.2868   12.7033 H       1  UNL1        0.1527
     32 O          66.2653   93.5525   13.1242 O.3     1  UNL1       -0.4262
     33 C          66.0036   94.0134   11.7210 C.3     1  UNL1        0.2753
     34 C          66.9349   93.6149   10.6147 C.ar    1  UNL1        0.1880
     35 C          67.0750   94.3031    9.2893 C.ar    1  UNL1        0.1389
     36 N          68.1163   93.5718    8.4950 N.ar    1  UNL1       -0.2028
     37 C          68.6198   92.4316    9.3295 C.ar    1  UNL1        0.2849
     38 O          67.8897   92.4582   10.6396 O.2     1  UNL1       -0.4317
     39 C          63.5958   90.1099   15.0843 C.3     1  UNL1        0.0460
     40 C          63.5997   88.7173   15.6419 C.ar    1  UNL1       -0.0205
     41 C          62.8681   88.4178   16.9167 C.ar    1  UNL1       -0.0042
     42 C          62.8721   87.0253   17.4742 C.ar    1  UNL1       -0.0003
     43 C          63.6076   85.9323   16.7569 C.ar    1  UNL1       -0.0000
     44 C          64.3392   86.2318   15.4822 C.ar    1  UNL1       -0.0003
     45 C          64.3352   87.6243   14.9247 C.ar    1  UNL1       -0.0042
     46 C          62.3084   86.5925   12.2552 C.3     1  UNL1        0.0459
     47 C          62.9601   85.3000   11.8619 C.ar    1  UNL1       -0.0205
     48 C          63.5745   84.4203   12.9100 C.ar    1  UNL1       -0.0042
     49 C          64.2262   83.1278   12.5166 C.ar    1  UNL1       -0.0003
     50 C          64.2634   82.7149   11.0751 C.ar    1  UNL1       -0.0000
     51 C          63.6490   83.5946   10.0268 C.ar    1  UNL1       -0.0003
     52 C          62.9973   84.8871   10.4202 C.ar    1  UNL1       -0.0042
@<TRIPOS>BOND
     1    19    20    1
     2    20    21    1
     3    20    14    1
     4    14    15   ar
     5    15    16   ar
     6    16    13    1
     7    13     7    1
     8     7     8    1
     9     7     9   am
    10     9    10    2
    11     9    11   am
    12     6    11    1
    13     6     2    1
    14     2     3    2
    15     2     4   am
    16     4     1    1
    17     1    25    1
    18    25    26    1
    19    27    26    1
    20    27    39    1
    21    39    40    1
    22    40    41   ar
    23    41    42   ar
    24    42    43   ar
    25    43    44   ar
    26    44    45   ar
    27    27    28    1
    28    28    29   am
    29    29    30    2
    30    29    32    1
    31    32    33    1
    32    33    34    1
    33    34    35   ar
    34    35    36   ar
    35    36    37   ar
    36    37    38   ar
    37     1    46    1
    38    46    47    1
    39    47    48   ar
    40    48    49   ar
    41    49    50   ar
    42    50    51   ar
    43    51    52   ar
    44     6    22    1
    45    22    23    1
    46    22    24    1
    47    16    17   ar
    48    17    18   ar
    49    18    14   ar
    50    45    40   ar
    51    38    34   ar
    52    52    47   ar
    53    11    12    1
    54     4     5    1
    55    28    31    1
@<TRIPOS>MOLECULE
*****
 52 55 0 0 0
SMALL
GASTEIGER

@<TRIPOS>ATOM
      1 C          62.0328   87.8449   11.1938 C.3     1  UNL1        0.0760
      2 C          63.2674   89.6955   12.5359 C.2     1  UNL1        0.2403
      3 O          63.1136   90.6373   11.3786 O.2     1  UNL1       -0.2733
      4 N          62.7270   88.2992   12.4434 N.am    1  UNL1       -0.3043
      5 H          62.8279   87.6810   13.2030 H       1  UNL1        0.1494
      6 C          63.9616   90.1498   13.7855 C.3     1  UNL1        0.1496
      7 N          66.8631   92.7966   14.3564 N.am    1  UNL1       -0.2567
      8 C          68.2573   92.8495   14.9071 C.3     1  UNL1        0.1168
      9 C          66.1095   91.4997   14.3463 C.2     1  UNL1        0.3046
     10 O          66.7501   90.2557   14.8870 O.2     1  UNL1       -0.2526
     11 N          64.7152   91.4467   13.7956 N.am    1  UNL1       -0.2824
     12 H          64.2948   92.2632   13.4408 H       1  UNL1        0.1514
     13 C          66.2225   94.0405   13.8158 C.3     1  UNL1        0.1413
     14 C          67.1492   94.4166   10.0654 C.ar    1  UNL1        0.0875
     15 N          67.1112   93.6129   11.3313 N.ar    1  UNL1       -0.2453
     16 C          66.4649   94.4516   12.3937 C.ar    1  UNL1        0.0858
     17 C          66.1035   95.7738   11.7844 C.ar    1  UNL1        0.0530
     18 S          66.5264   95.7522   10.3454 S.2     1  UNL1       -0.0705
     19 C          67.5001   94.7944    7.5190 C.3     1  UNL1        0.0069
     20 C          67.7113   93.9643    8.7503 C.3     1  UNL1        0.0465
     21 C          68.4847   92.6817    8.6666 C.3     1  UNL1        0.0069
     22 C          63.9022   89.3072   15.0251 C.3     1  UNL1        0.0270
     23 C          63.3026   89.8639   16.2823 C.3     1  UNL1        0.0022
     24 C          64.4423   87.9080   15.0074 C.3     1  UNL1        0.0022
     25 C          62.7557   86.9757   10.2079 C.3     1  UNL1        0.0216
     26 C          62.3463   85.5439   10.0290 C.3     1  UNL1        0.0217
     27 C          62.9568   84.4763   10.8878 C.3     1  UNL1        0.0792
     28 N          62.5419   83.0453   10.7139 N.am    1  UNL1       -0.2720
     29 C          63.5386   82.0271   10.2448 C.2     1  UNL1        0.4020
     30 O          64.9501   82.4399    9.9496 O.2     1  UNL1       -0.2264
     31 H          61.6154   82.7744   10.9076 H       1  UNL1        0.1527
     32 O          63.1237   80.5962   10.0708 O.3     1  UNL1       -0.4262
     33 C          62.8468   79.7441   11.2738 C.3     1  UNL1        0.2753
     34 C          62.6014   80.3859   12.6071 C.ar    1  UNL1        0.1880
     35 C          63.6520   80.9169   13.5368 C.ar    1  UNL1        0.1389
     36 N          62.9622   81.4686   14.7492 N.ar    1  UNL1       -0.2028
     37 C          61.4852   81.2786   14.5688 C.ar    1  UNL1        0.2849
     38 O          61.2623   80.6095   13.2449 O.2     1  UNL1       -0.4317
     39 C          63.9822   84.8396   11.9205 C.3     1  UNL1        0.0460
     40 C          63.6340   84.7754   13.3782 C.ar    1  UNL1       -0.0205
     41 C          62.2018   84.8759   13.8123 C.ar    1  UNL1       -0.0042
     42 C          61.8537   84.8117   15.2699 C.ar    1  UNL1       -0.0003
     43 C          62.9378   84.6470   16.2934 C.ar    1  UNL1       -0.0000
     44 C          64.3701   84.5465   15.8593 C.ar    1  UNL1       -0.0003
     45 C          64.7182   84.6107   14.4017 C.ar    1  UNL1       -0.0042
     46 C          60.6156   88.2597   10.9300 C.3     1  UNL1        0.0459
     47 C          60.0801   88.2512    9.5289 C.ar    1  UNL1       -0.0205
     48 C          59.4063   87.0238    8.9909 C.ar    1  UNL1       -0.0042
     49 C          58.8708   87.0154    7.5897 C.ar    1  UNL1       -0.0003
     50 C          59.0091   88.2343    6.7266 C.ar    1  UNL1       -0.0000
     51 C          59.6829   89.4618    7.2646 C.ar    1  UNL1       -0.0003
     52 C          60.2184   89.4702    8.6657 C.ar    1  UNL1       -0.0042
@<TRIPOS>BOND
     1    19    20    1
     2    20    21    1
     3    20    14    1
     4    14    15   ar
     5    15    16   ar
     6    16    13    1
     7    13     7    1
     8     7     8    1
     9     7     9   am
    10     9    10    2
    11     9    11   am
    12     6    11    1
    13     6     2    1
    14     2     3    2
    15     2     4   am
    16     4     1    1
    17     1    25    1
    18    25    26    1
    19    27    26    1
    20    27    39    1
    21    39    40    1
    22    40    41   ar
    23    41    42   ar
    24    42    43   ar
    25    43    44   ar
    26    44    45   ar
    27    27    28    1
    28    28    29   am
    29    29    30    2
    30    29    32    1
    31    32    33    1
    32    33    34    1
    33    34    35   ar
    34    35    36   ar
    35    36    37   ar
    36    37    38   ar
    37     1    46    1
    38    46    47    1
    39    47    48   ar
    40    48    49   ar
    41    49    50   ar
    42    50    51   ar
    43    51    52   ar
    44     6    22    1
    45    22    23    1
    46    22    24    1
    47    16    17   ar
    48    17    18   ar
    49    18    14   ar
    50    45    40   ar
    51    38    34   ar
    52    52    47   ar
    53    11    12    1
    54     4     5    1
    55    28    31    1
@<TRIPOS>MOLECULE
*****
 52 55 0 0 0
SMALL
GASTEIGER

@<TRIPOS>ATOM
      1 C          61.8787   88.7236   11.1761 C.3     1  UNL1        0.0760
      2 C          63.5177   90.2490   12.4939 C.2     1  UNL1        0.2403
      3 O          63.9079   90.9328   11.2172 O.2     1  UNL1       -0.2733
      4 N          62.5031   89.1444   12.4734 N.am    1  UNL1       -0.3043
      5 H          62.2470   88.6956   13.3114 H       1  UNL1        0.1494
      6 C          64.1421   90.6698   13.7913 C.3     1  UNL1        0.1496
      7 N          67.1343   93.1816   14.4896 N.am    1  UNL1       -0.2567
      8 C          68.5274   93.1591   15.0452 C.3     1  UNL1        0.1168
      9 C          66.3348   91.9145   14.4182 C.2     1  UNL1        0.3046
     10 O          66.9283   90.6248   14.9025 O.2     1  UNL1       -0.2526
     11 N          64.9416   91.9370   13.8626 N.am    1  UNL1       -0.2824
     12 H          64.5521   92.7834   13.5448 H       1  UNL1        0.1514
     13 C          66.5407   94.4712   14.0053 C.3     1  UNL1        0.1413
     14 C          67.0416   94.7208   10.1644 C.ar    1  UNL1        0.0875
     15 N          67.1673   93.9682   11.4559 N.ar    1  UNL1       -0.2453
     16 C          66.6137   94.8310   12.5509 C.ar    1  UNL1        0.0858
     17 C          66.1458   96.1168   11.9362 C.ar    1  UNL1        0.0530
     18 S          66.4103   96.0487   10.4613 S.2     1  UNL1       -0.0705
     19 C          67.1213   95.0170    7.5845 C.3     1  UNL1        0.0069
     20 C          67.4717   94.2313    8.8133 C.3     1  UNL1        0.0465
     21 C          68.2522   92.9563    8.6910 C.3     1  UNL1        0.0069
     22 C          63.9670   89.8235   15.0172 C.3     1  UNL1        0.0270
     23 C          64.2903   88.3595   14.9704 C.3     1  UNL1        0.0022
     24 C          63.4686   90.4411   16.2900 C.3     1  UNL1        0.0022
     25 C          62.3091   87.4474   10.5157 C.3     1  UNL1        0.0216
     26 C          62.0853   86.1340   11.2046 C.3     1  UNL1        0.0217
     27 C          62.6921   84.8810   10.6459 C.3     1  UNL1        0.0792
     28 N          62.5616   83.5868   11.3929 N.am    1  UNL1       -0.2720
     29 C          63.7271   82.6459   11.4722 C.2     1  UNL1        0.4020
     30 O          65.0230   82.9991   10.8045 O.2     1  UNL1       -0.2264
     31 H          61.7111   83.3550   11.8312 H       1  UNL1        0.1527
     32 O          63.5967   81.3517   12.2193 O.3     1  UNL1       -0.4262
     33 C          63.4345   81.3595   13.7104 C.3     1  UNL1        0.2753
     34 C          63.3209   82.6620   14.4457 C.ar    1  UNL1        0.1880
     35 C          62.0510   83.2842   14.9459 C.ar    1  UNL1        0.1389
     36 N          62.4025   84.5777   15.6192 N.ar    1  UNL1       -0.2028
     37 C          63.8896   84.7549   15.5351 C.ar    1  UNL1        0.2849
     38 O          64.4572   83.5709   14.8099 O.2     1  UNL1       -0.4317
     39 C          63.4292   84.9223    9.3402 C.3     1  UNL1        0.0460
     40 C          62.6751   84.8034    8.0490 C.ar    1  UNL1       -0.0205
     41 C          61.2022   85.0848    8.0121 C.ar    1  UNL1       -0.0042
     42 C          60.4481   84.9659    6.7209 C.ar    1  UNL1       -0.0003
     43 C          61.1669   84.5655    5.4667 C.ar    1  UNL1       -0.0000
     44 C          62.6397   84.2841    5.5036 C.ar    1  UNL1       -0.0003
     45 C          63.3938   84.4031    6.7948 C.ar    1  UNL1       -0.0042
     46 C          60.8238   89.5790   10.5391 C.3     1  UNL1        0.0459
     47 C          60.1210   89.1058    9.3014 C.ar    1  UNL1       -0.0205
     48 C          59.3614   87.8125    9.3182 C.ar    1  UNL1       -0.0042
     49 C          58.6585   87.3393    8.0805 C.ar    1  UNL1       -0.0003
     50 C          58.7152   88.1594    6.8258 C.ar    1  UNL1       -0.0000
     51 C          59.4748   89.4528    6.8089 C.ar    1  UNL1       -0.0003
     52 C          60.1777   89.9260    8.0467 C.ar    1  UNL1       -0.0042
@<TRIPOS>BOND
     1    19    20    1
     2    20    21    1
     3    20    14    1
     4    14    15   ar
     5    15    16   ar
     6    16    13    1
     7    13     7    1
     8     7     8    1
     9     7     9   am
    10     9    10    2
    11     9    11   am
    12     6    11    1
    13     6     2    1
    14     2     3    2
    15     2     4   am
    16     4     1    1
    17     1    25    1
    18    25    26    1
    19    27    26    1
    20    27    39    1
    21    39    40    1
    22    40    41   ar
    23    41    42   ar
    24    42    43   ar
    25    43    44   ar
    26    44    45   ar
    27    27    28    1
    28    28    29   am
    29    29    30    2
    30    29    32    1
    31    32    33    1
    32    33    34    1
    33    34    35   ar
    34    35    36   ar
    35    36    37   ar
    36    37    38   ar
    37     1    46    1
    38    46    47    1
    39    47    48   ar
    40    48    49   ar
    41    49    50   ar
    42    50    51   ar
    43    51    52   ar
    44     6    22    1
    45    22    23    1
    46    22    24    1
    47    16    17   ar
    48    17    18   ar
    49    18    14   ar
    50    45    40   ar
    51    38    34   ar
    52    52    47   ar
    53    11    12    1
    54     4     5    1
    55    28    31    1
@<TRIPOS>MOLECULE
*****
 52 55 0 0 0
SMALL
GASTEIGER

@<TRIPOS>ATOM
      1 C          64.4181   90.4846   14.5079 C.3     1  UNL1        0.0760
      2 C          63.1698   88.4110   15.4525 C.2     1  UNL1        0.2403
      3 O          62.1155   89.3084   16.0294 O.2     1  UNL1       -0.2733
      4 N          64.3211   88.9990   14.6917 N.am    1  UNL1       -0.3043
      5 H          65.0132   88.4100   14.3130 H       1  UNL1        0.1494
      6 C          63.0729   86.9254   15.6363 C.3     1  UNL1        0.1496
      7 N          63.8444   84.3660   12.7029 N.am    1  UNL1       -0.2567
      8 C          65.0033   83.5905   12.1503 C.3     1  UNL1        0.1168
      9 C          64.0381   85.2579   13.8933 C.2     1  UNL1        0.3046
     10 O          65.3908   85.3743   14.5311 O.2     1  UNL1       -0.2526
     11 N          62.8791   86.0335   14.4459 N.am    1  UNL1       -0.2824
     12 H          61.9913   85.9571   14.0273 H       1  UNL1        0.1514
     13 C          62.4917   84.2497   12.0652 C.3     1  UNL1        0.1413
     14 C          61.1428   86.2454    9.0216 C.ar    1  UNL1        0.0875
     15 N          61.0023   85.7519   10.4311 N.ar    1  UNL1       -0.2453
     16 C          62.2167   84.9350   10.7595 C.ar    1  UNL1        0.0858
     17 C          63.1078   84.9236    9.5529 C.ar    1  UNL1        0.0530
     18 S          62.4442   85.7335    8.4788 S.2     1  UNL1       -0.0705
     19 C          60.3257   88.5908    8.2590 C.3     1  UNL1        0.0069
     20 C          60.1554   87.1007    8.2843 C.3     1  UNL1        0.0465
     21 C          58.9978   86.4659    7.5723 C.3     1  UNL1        0.0069
     22 C          63.1698   86.3318   17.0104 C.3     1  UNL1        0.0270
     23 C          63.6160   84.9102   17.1835 C.3     1  UNL1        0.0022
     24 C          62.8204   87.1598   18.2113 C.3     1  UNL1        0.0022
     25 C          63.8893   91.1216   13.2571 C.3     1  UNL1        0.0216
     26 C          64.8012   91.3489   12.0881 C.3     1  UNL1        0.0217
     27 C          64.2544   91.9076   10.8078 C.3     1  UNL1        0.0792
     28 N          64.6839   93.2660   10.3385 N.am    1  UNL1       -0.2720
     29 C          65.4799   94.1562   11.2463 C.2     1  UNL1        0.4020
     30 O          65.8463   93.6880   12.6234 O.2     1  UNL1       -0.2264
     31 H          64.4434   93.5733    9.4346 H       1  UNL1        0.1527
     32 O          65.9093   95.5146   10.7769 O.3     1  UNL1       -0.4262
     33 C          67.0581   95.6496    9.8220 C.3     1  UNL1        0.2753
     34 C          67.7747   94.4260    9.3329 C.ar    1  UNL1        0.1880
     35 C          67.9628   94.0285    7.8988 C.ar    1  UNL1        0.1389
     36 N          68.7333   92.7418    7.8716 N.ar    1  UNL1       -0.2028
     37 C          69.0214   92.3440    9.2889 C.ar    1  UNL1        0.2849
     38 O          68.4289   93.3849   10.1920 O.2     1  UNL1       -0.4317
     39 C          63.2783   91.1079    9.9970 C.3     1  UNL1        0.0460
     40 C          62.1178   90.4359   10.6694 C.ar    1  UNL1       -0.0205
     41 C          60.8005   91.1450   10.7777 C.ar    1  UNL1       -0.0042
     42 C          59.6402   90.4730   11.4500 C.ar    1  UNL1       -0.0003
     43 C          59.7972   89.0920   12.0140 C.ar    1  UNL1       -0.0000
     44 C          61.1145   88.3829   11.9057 C.ar    1  UNL1       -0.0003
     45 C          62.2748   89.0549   11.2334 C.ar    1  UNL1       -0.0042
     46 C          65.0437   91.3331   15.5751 C.3     1  UNL1        0.0459
     47 C          66.4265   91.8816   15.3824 C.ar    1  UNL1       -0.0205
     48 C          67.3475   91.2574   14.3764 C.ar    1  UNL1       -0.0042
     49 C          68.7303   91.8059   14.1838 C.ar    1  UNL1       -0.0003
     50 C          69.1920   92.9786   14.9971 C.ar    1  UNL1       -0.0000
     51 C          68.2710   93.6028   16.0032 C.ar    1  UNL1       -0.0003
     52 C          66.8882   93.0543   16.1959 C.ar    1  UNL1       -0.0042
@<TRIPOS>BOND
     1    19    20    1
     2    20    21    1
     3    20    14    1
     4    14    15   ar
     5    15    16   ar
     6    16    13    1
     7    13     7    1
     8     7     8    1
     9     7     9   am
    10     9    10    2
    11     9    11   am
    12     6    11    1
    13     6     2    1
    14     2     3    2
    15     2     4   am
    16     4     1    1
    17     1    25    1
    18    25    26    1
    19    27    26    1
    20    27    39    1
    21    39    40    1
    22    40    41   ar
    23    41    42   ar
    24    42    43   ar
    25    43    44   ar
    26    44    45   ar
    27    27    28    1
    28    28    29   am
    29    29    30    2
    30    29    32    1
    31    32    33    1
    32    33    34    1
    33    34    35   ar
    34    35    36   ar
    35    36    37   ar
    36    37    38   ar
    37     1    46    1
    38    46    47    1
    39    47    48   ar
    40    48    49   ar
    41    49    50   ar
    42    50    51   ar
    43    51    52   ar
    44     6    22    1
    45    22    23    1
    46    22    24    1
    47    16    17   ar
    48    17    18   ar
    49    18    14   ar
    50    45    40   ar
    51    38    34   ar
    52    52    47   ar
    53    11    12    1
    54     4     5    1
    55    28    31    1
