@<TRIPOS>MOLECULE
*****
 24 27 0 0 0
SMALL
GASTEIGER

@<TRIPOS>ATOM
      1 C          65.3325   92.6602   12.4931 C.ar    1  UNL1        0.1536
      2 C          66.0332   92.3400   13.7801 C.ar    1  UNL1        0.1332
      3 N          65.6190   91.1417   14.5816 N.ar    1  UNL1       -0.2393
      4 C          64.5041   90.2635   14.0960 C.ar    1  UNL1        0.1021
      5 C          63.8033   90.5837   12.8091 C.ar    1  UNL1        0.1346
      6 N          64.2175   91.7820   12.0076 N.ar    1  UNL1       -0.2243
      7 C          64.0899   89.0651   14.8976 C.ar    1  UNL1        0.0223
      8 C          64.4659   87.6881   14.4367 C.ar    1  UNL1        0.0222
      9 C          64.0517   86.4898   15.2383 C.ar    1  UNL1        0.0989
     10 N          63.2615   86.6685   16.5007 N.ar    1  UNL1       -0.2423
     11 C          62.8855   88.0456   16.9615 C.ar    1  UNL1        0.0989
     12 C          63.2997   89.2439   16.1600 C.ar    1  UNL1        0.0222
     13 C          62.6884   89.7055   12.3235 C.ar    1  UNL1        0.1645
     14 C          62.8228   88.5570   11.3681 C.ar    1  UNL1        0.0423
     15 C          61.4608   87.9633   11.1623 C.ar    1  UNL1        0.0438
     16 C          60.4845   88.7450   11.9904 C.ar    1  UNL1        0.1797
     17 O          61.2432   89.8217   12.7081 O.2     1  UNL1       -0.4488
     18 O          67.1616   92.3306   10.1382 O.2     1  UNL1       -0.2747
     19 C          66.6612   93.6937   10.5141 C.2     1  UNL1        0.2267
     20 N          65.7467   93.8586   11.6916 N.am    1  UNL1       -0.2681
     21 H          65.4183   94.7533   11.9383 H       1  UNL1        0.1563
     22 C          67.0754   94.8921    9.7126 C.3     1  UNL1        0.0769
     23 C          67.2291   96.3786    9.5834 C.3     1  UNL1        0.0096
     24 C          67.6390   95.4813    8.4535 C.3     1  UNL1        0.0096
@<TRIPOS>BOND
     1    18    19    2
     2    19    20   am
     3    20     1    1
     4     1     2   ar
     5     2     3   ar
     6     3     4   ar
     7     4     7    1
     8     7     8   ar
     9     8     9   ar
    10     9    10   ar
    11    10    11   ar
    12    11    12   ar
    13     4     5   ar
    14     5    13    1
    15    13    14   ar
    16    14    15   ar
    17    15    16   ar
    18    16    17   ar
    19     5     6   ar
    20    19    22    1
    21    22    23    1
    22    23    24    1
    23     6     1   ar
    24    24    22    1
    25    12     7   ar
    26    17    13   ar
    27    20    21    1
@<TRIPOS>MOLECULE
*****
 24 27 0 0 0
SMALL
GASTEIGER

@<TRIPOS>ATOM
      1 C          62.8070   90.8607   10.8728 C.ar    1  UNL1        0.1536
      2 C          62.9918   90.3349   12.2654 C.ar    1  UNL1        0.1332
      3 N          64.1676   90.7783   13.0845 N.ar    1  UNL1       -0.2393
      4 C          65.1584   91.7475   12.5111 C.ar    1  UNL1        0.1021
      5 C          64.9735   92.2734   11.1185 C.ar    1  UNL1        0.1346
      6 N          63.7978   91.8300   10.2994 N.ar    1  UNL1       -0.2243
      7 C          66.3342   92.1910   13.3303 C.ar    1  UNL1        0.0223
      8 C          66.1382   93.1535   14.4638 C.ar    1  UNL1        0.0222
      9 C          67.3140   93.5969   15.2831 C.ar    1  UNL1        0.0989
     10 N          68.6857   93.0777   14.9686 N.ar    1  UNL1       -0.2423
     11 C          68.8816   92.1151   13.8350 C.ar    1  UNL1        0.0989
     12 C          67.7059   91.6718   13.0158 C.ar    1  UNL1        0.0222
     13 C          65.9644   93.2426   10.5451 C.ar    1  UNL1        0.1645
     14 C          65.9138   94.7360   10.6755 C.ar    1  UNL1        0.0423
     15 C          67.0979   95.3050    9.9516 C.ar    1  UNL1        0.0438
     16 C          67.8804   94.1632    9.3736 C.ar    1  UNL1        0.1797
     17 O          67.1798   92.8886    9.7404 O.2     1  UNL1       -0.4488
     18 O          62.5914   88.0043    9.9814 O.2     1  UNL1       -0.2747
     19 C          61.5234   88.9892    9.6079 C.2     1  UNL1        0.2267
     20 N          61.6312   90.4173   10.0536 N.am    1  UNL1       -0.2681
     21 H          60.9302   91.0637    9.8085 H       1  UNL1        0.1563
     22 C          60.3477   88.5458    8.7887 C.3     1  UNL1        0.0769
     23 C          59.3857   88.7827    7.6625 C.3     1  UNL1        0.0096
     24 C          59.2732   87.5408    8.4961 C.3     1  UNL1        0.0096
@<TRIPOS>BOND
     1    18    19    2
     2    19    20   am
     3    20     1    1
     4     1     2   ar
     5     2     3   ar
     6     3     4   ar
     7     4     7    1
     8     7     8   ar
     9     8     9   ar
    10     9    10   ar
    11    10    11   ar
    12    11    12   ar
    13     4     5   ar
    14     5    13    1
    15    13    14   ar
    16    14    15   ar
    17    15    16   ar
    18    16    17   ar
    19     5     6   ar
    20    19    22    1
    21    22    23    1
    22    23    24    1
    23     6     1   ar
    24    24    22    1
    25    12     7   ar
    26    17    13   ar
    27    20    21    1
@<TRIPOS>MOLECULE
*****
 24 27 0 0 0
SMALL
GASTEIGER

@<TRIPOS>ATOM
      1 C          63.9714   90.0552   14.5478 C.ar    1  UNL1        0.1536
      2 C          63.3923   90.3557   13.1972 C.ar    1  UNL1        0.1332
      3 N          64.1029   91.2953   12.2687 N.ar    1  UNL1       -0.2393
      4 C          65.3927   91.9344   12.6909 C.ar    1  UNL1        0.1021
      5 C          65.9717   91.6338   14.0415 C.ar    1  UNL1        0.1346
      6 N          65.2611   90.6942   14.9700 N.ar    1  UNL1       -0.2243
      7 C          66.1033   92.8740   11.7623 C.ar    1  UNL1        0.0223
      8 C          66.9647   92.3313   10.6608 C.ar    1  UNL1        0.0222
      9 C          67.6754   93.2709    9.7322 C.ar    1  UNL1        0.0989
     10 N          67.5246   94.7533    9.9053 N.ar    1  UNL1       -0.2423
     11 C          66.6631   95.2960   11.0069 C.ar    1  UNL1        0.0989
     12 C          65.9525   94.3563   11.9354 C.ar    1  UNL1        0.0222
     13 C          67.2615   92.2728   14.4637 C.ar    1  UNL1        0.1645
     14 C          67.4350   93.2480   15.5902 C.ar    1  UNL1        0.0423
     15 C          68.8849   93.6268   15.6562 C.ar    1  UNL1        0.0438
     16 C          69.6075   92.8857   14.5706 C.ar    1  UNL1        0.1797
     17 O          68.6041   92.0489   13.8336 O.2     1  UNL1       -0.4488
     18 O          64.9602   87.2426   14.8818 O.2     1  UNL1       -0.2747
     19 C          63.7552   87.7093   15.6433 C.2     1  UNL1        0.2267
     20 N          63.2607   89.1155   15.4763 N.am    1  UNL1       -0.2681
     21 H          62.4698   89.4218   15.9762 H       1  UNL1        0.1563
     22 C          63.0445   86.7696   16.5719 C.3     1  UNL1        0.0769
     23 C          62.3141   85.4808   16.8072 C.3     1  UNL1        0.0096
     24 C          62.5441   86.4310   17.9448 C.3     1  UNL1        0.0096
@<TRIPOS>BOND
     1    18    19    2
     2    19    20   am
     3    20     1    1
     4     1     2   ar
     5     2     3   ar
     6     3     4   ar
     7     4     7    1
     8     7     8   ar
     9     8     9   ar
    10     9    10   ar
    11    10    11   ar
    12    11    12   ar
    13     4     5   ar
    14     5    13    1
    15    13    14   ar
    16    14    15   ar
    17    15    16   ar
    18    16    17   ar
    19     5     6   ar
    20    19    22    1
    21    22    23    1
    22    23    24    1
    23     6     1   ar
    24    24    22    1
    25    12     7   ar
    26    17    13   ar
    27    20    21    1
@<TRIPOS>MOLECULE
*****
 24 27 0 0 0
SMALL
GASTEIGER

@<TRIPOS>ATOM
      1 C          62.4204   90.6193   10.5797 C.ar    1  UNL1        0.1536
      2 C          63.5250   91.4816   10.0448 C.ar    1  UNL1        0.1332
      3 N          64.6090   91.9661   10.9614 N.ar    1  UNL1       -0.2393
      4 C          64.5883   91.5883   12.4129 C.ar    1  UNL1        0.1021
      5 C          63.4837   90.7259   12.9478 C.ar    1  UNL1        0.1346
      6 N          62.3998   90.2414   12.0311 N.ar    1  UNL1       -0.2243
      7 C          65.6724   92.0729   13.3295 C.ar    1  UNL1        0.0223
      8 C          66.4337   91.0944   14.1738 C.ar    1  UNL1        0.0222
      9 C          67.5177   91.5790   15.0904 C.ar    1  UNL1        0.0989
     10 N          67.8404   93.0421   15.1627 N.ar    1  UNL1       -0.2423
     11 C          67.0789   94.0206   14.3184 C.ar    1  UNL1        0.0989
     12 C          65.9950   93.5360   13.4018 C.ar    1  UNL1        0.0222
     13 C          63.4631   90.3481   14.3992 C.ar    1  UNL1        0.1645
     14 C          63.5310   88.9539   14.9485 C.ar    1  UNL1        0.0423
     15 C          63.4808   89.0423   16.4450 C.ar    1  UNL1        0.0438
     16 C          63.3818   90.4911   16.8208 C.ar    1  UNL1        0.1797
     17 O          63.3709   91.2981   15.5564 O.2     1  UNL1       -0.4488
     18 O          62.1082   87.6836   10.0460 O.2     1  UNL1       -0.2747
     19 C          61.1803   88.6669    9.3962 C.2     1  UNL1        0.2267
     20 N          61.3364   90.1347    9.6630 N.am    1  UNL1       -0.2681
     21 H          60.7274   90.7800    9.2365 H       1  UNL1        0.1563
     22 C          60.0963   88.1823    8.4796 C.3     1  UNL1        0.0769
     23 C          59.1182   88.4431    7.3727 C.3     1  UNL1        0.0096
     24 C          59.1968   87.0823    7.9989 C.3     1  UNL1        0.0096
@<TRIPOS>BOND
     1    18    19    2
     2    19    20   am
     3    20     1    1
     4     1     2   ar
     5     2     3   ar
     6     3     4   ar
     7     4     7    1
     8     7     8   ar
     9     8     9   ar
    10     9    10   ar
    11    10    11   ar
    12    11    12   ar
    13     4     5   ar
    14     5    13    1
    15    13    14   ar
    16    14    15   ar
    17    15    16   ar
    18    16    17   ar
    19     5     6   ar
    20    19    22    1
    21    22    23    1
    22    23    24    1
    23     6     1   ar
    24    24    22    1
    25    12     7   ar
    26    17    13   ar
    27    20    21    1
@<TRIPOS>MOLECULE
*****
 24 27 0 0 0
SMALL
GASTEIGER

@<TRIPOS>ATOM
      1 C          63.7127   85.2407   13.3208 C.ar    1  UNL1        0.1536
      2 C          64.5187   85.4862   14.5617 C.ar    1  UNL1        0.1332
      3 N          64.7232   86.8868   15.0583 N.ar    1  UNL1       -0.2393
      4 C          64.1218   88.0418   14.3139 C.ar    1  UNL1        0.1021
      5 C          63.3158   87.7963   13.0730 C.ar    1  UNL1        0.1346
      6 N          63.1112   86.3958   12.5764 N.ar    1  UNL1       -0.2243
      7 C          64.3263   89.4424   14.8106 C.ar    1  UNL1        0.0223
      8 C          63.4968   89.9641   15.9461 C.ar    1  UNL1        0.0222
      9 C          63.7013   91.3647   16.4428 C.ar    1  UNL1        0.0989
     10 N          64.7355   92.2435   15.8038 N.ar    1  UNL1       -0.2423
     11 C          65.5651   91.7217   14.6682 C.ar    1  UNL1        0.0989
     12 C          65.3605   90.3211   14.1716 C.ar    1  UNL1        0.0222
     13 C          62.7143   88.9513   12.3286 C.ar    1  UNL1        0.1645
     14 C          63.4359   89.8589   11.3770 C.ar    1  UNL1        0.0423
     15 C          62.4532   90.8701   10.8654 C.ar    1  UNL1        0.0438
     16 C          61.1242   90.5875   11.5008 C.ar    1  UNL1        0.1797
     17 O          61.2855   89.4017   12.4051 O.2     1  UNL1       -0.4488
     18 O          62.3240   83.2228   15.0527 O.2     1  UNL1       -0.2747
     19 C          62.8138   82.8312   13.6901 C.2     1  UNL1        0.2267
     20 N          63.5081   83.8401   12.8241 N.am    1  UNL1       -0.2681
     21 H          63.8296   83.5831   11.9298 H       1  UNL1        0.1563
     22 C          62.6092   81.4306   13.1934 C.3     1  UNL1        0.0769
     23 C          62.7601   80.4001   12.1140 C.3     1  UNL1        0.0096
     24 C          62.1040   80.0354   13.4127 C.3     1  UNL1        0.0096
@<TRIPOS>BOND
     1    18    19    2
     2    19    20   am
     3    20     1    1
     4     1     2   ar
     5     2     3   ar
     6     3     4   ar
     7     4     7    1
     8     7     8   ar
     9     8     9   ar
    10     9    10   ar
    11    10    11   ar
    12    11    12   ar
    13     4     5   ar
    14     5    13    1
    15    13    14   ar
    16    14    15   ar
    17    15    16   ar
    18    16    17   ar
    19     5     6   ar
    20    19    22    1
    21    22    23    1
    22    23    24    1
    23     6     1   ar
    24    24    22    1
    25    12     7   ar
    26    17    13   ar
    27    20    21    1
@<TRIPOS>MOLECULE
*****
 24 27 0 0 0
SMALL
GASTEIGER

@<TRIPOS>ATOM
      1 C          62.3802   90.5980   10.7701 C.ar    1  UNL1        0.1536
      2 C          63.4026   91.6530   10.4674 C.ar    1  UNL1        0.1332
      3 N          64.4450   92.0019   11.4880 N.ar    1  UNL1       -0.2393
      4 C          64.4650   91.2959   12.8113 C.ar    1  UNL1        0.1021
      5 C          63.4426   90.2409   13.1140 C.ar    1  UNL1        0.1346
      6 N          62.4002   89.8920   12.0934 N.ar    1  UNL1       -0.2243
      7 C          65.5074   91.6449   13.8319 C.ar    1  UNL1        0.0223
      8 C          65.0945   92.1174   15.1943 C.ar    1  UNL1        0.0222
      9 C          66.1370   92.4664   16.2149 C.ar    1  UNL1        0.0989
     10 N          67.5923   92.3429   15.8730 N.ar    1  UNL1       -0.2423
     11 C          68.0051   91.8704   14.5105 C.ar    1  UNL1        0.0989
     12 C          66.9627   91.5214   13.4900 C.ar    1  UNL1        0.0222
     13 C          63.4625   89.5349   14.4373 C.ar    1  UNL1        0.1645
     14 C          62.9510   90.0826   15.7366 C.ar    1  UNL1        0.0423
     15 C          63.1698   89.0434   16.7960 C.ar    1  UNL1        0.0438
     16 C          63.8167   87.8534   16.1514 C.ar    1  UNL1        0.1797
     17 O          63.9976   88.1572   14.6936 O.2     1  UNL1       -0.4488
     18 O          61.9824   87.7401    9.9490 O.2     1  UNL1       -0.2747
     19 C          61.1389   88.8200    9.3389 C.2     1  UNL1        0.2267
     20 N          61.3378   90.2490    9.7495 N.am    1  UNL1       -0.2681
     21 H          60.7842   90.9578    9.3491 H       1  UNL1        0.1563
     22 C          60.0965   88.4710    8.3183 C.3     1  UNL1        0.0769
     23 C          59.2627   88.8510    7.1307 C.3     1  UNL1        0.0096
     24 C          59.1247   87.4865    7.7382 C.3     1  UNL1        0.0096
@<TRIPOS>BOND
     1    18    19    2
     2    19    20   am
     3    20     1    1
     4     1     2   ar
     5     2     3   ar
     6     3     4   ar
     7     4     7    1
     8     7     8   ar
     9     8     9   ar
    10     9    10   ar
    11    10    11   ar
    12    11    12   ar
    13     4     5   ar
    14     5    13    1
    15    13    14   ar
    16    14    15   ar
    17    15    16   ar
    18    16    17   ar
    19     5     6   ar
    20    19    22    1
    21    22    23    1
    22    23    24    1
    23     6     1   ar
    24    24    22    1
    25    12     7   ar
    26    17    13   ar
    27    20    21    1
@<TRIPOS>MOLECULE
*****
 24 27 0 0 0
SMALL
GASTEIGER

@<TRIPOS>ATOM
      1 C          62.9441   84.8115   12.7121 C.ar    1  UNL1        0.1536
      2 C          63.8849   85.0963   13.8452 C.ar    1  UNL1        0.1332
      3 N          64.2097   86.5140   14.2120 N.ar    1  UNL1       -0.2393
      4 C          63.5937   87.6469   13.4458 C.ar    1  UNL1        0.1021
      5 C          62.6529   87.3621   12.3127 C.ar    1  UNL1        0.1346
      6 N          62.3282   85.9444   11.9459 N.ar    1  UNL1       -0.2243
      7 C          63.9185   89.0647   13.8126 C.ar    1  UNL1        0.0223
      8 C          64.3324   90.0385   12.7495 C.ar    1  UNL1        0.0222
      9 C          64.6572   91.4563   13.1163 C.ar    1  UNL1        0.0989
     10 N          64.5682   91.9001   14.5464 N.ar    1  UNL1       -0.2423
     11 C          64.1544   90.9262   15.6096 C.ar    1  UNL1        0.0989
     12 C          63.8295   89.5085   15.2427 C.ar    1  UNL1        0.0222
     13 C          62.0370   88.4950   11.5465 C.ar    1  UNL1        0.1645
     14 C          62.3726   88.8936   10.1399 C.ar    1  UNL1        0.0423
     15 C          61.5203   90.0732    9.7764 C.ar    1  UNL1        0.0438
     16 C          60.6579   90.4037   10.9584 C.ar    1  UNL1        0.1797
     17 O          60.9772   89.4283   12.0523 O.2     1  UNL1       -0.4488
     18 O          64.7567   83.2851   10.8724 O.2     1  UNL1       -0.2747
     19 C          63.5256   82.6306   11.4254 C.2     1  UNL1        0.2267
     20 N          62.6193   83.3938   12.3453 N.am    1  UNL1       -0.2681
     21 H          61.8112   82.9642   12.7083 H       1  UNL1        0.1563
     22 C          63.2007   81.2129   11.0585 C.3     1  UNL1        0.0769
     23 C          63.0429   80.1438   10.0183 C.3     1  UNL1        0.0096
     24 C          62.7959   79.8264   11.4633 C.3     1  UNL1        0.0096
@<TRIPOS>BOND
     1    18    19    2
     2    19    20   am
     3    20     1    1
     4     1     2   ar
     5     2     3   ar
     6     3     4   ar
     7     4     7    1
     8     7     8   ar
     9     8     9   ar
    10     9    10   ar
    11    10    11   ar
    12    11    12   ar
    13     4     5   ar
    14     5    13    1
    15    13    14   ar
    16    14    15   ar
    17    15    16   ar
    18    16    17   ar
    19     5     6   ar
    20    19    22    1
    21    22    23    1
    22    23    24    1
    23     6     1   ar
    24    24    22    1
    25    12     7   ar
    26    17    13   ar
    27    20    21    1
@<TRIPOS>MOLECULE
*****
 24 27 0 0 0
SMALL
GASTEIGER

@<TRIPOS>ATOM
      1 C          63.5379   89.6854   12.7122 C.ar    1  UNL1        0.1536
      2 C          62.8615   90.4019   11.5812 C.ar    1  UNL1        0.1332
      3 N          62.1377   89.6210   10.5247 N.ar    1  UNL1       -0.2393
      4 C          62.0902   88.1236   10.5993 C.ar    1  UNL1        0.1021
      5 C          62.7666   87.4071   11.7302 C.ar    1  UNL1        0.1346
      6 N          63.4904   88.1880   12.7867 N.ar    1  UNL1       -0.2243
      7 C          61.3663   87.3427    9.5427 C.ar    1  UNL1        0.0223
      8 C          62.1301   86.4323    8.6275 C.ar    1  UNL1        0.0222
      9 C          61.4061   85.6514    7.5709 C.ar    1  UNL1        0.0989
     10 N          59.9184   85.7809    7.4297 N.ar    1  UNL1       -0.2423
     11 C          59.1546   86.6914    8.3451 C.ar    1  UNL1        0.0989
     12 C          59.8785   87.4722    9.4015 C.ar    1  UNL1        0.0222
     13 C          62.7191   85.9097   11.8047 C.ar    1  UNL1        0.1645
     14 C          63.1932   84.9588   10.7460 C.ar    1  UNL1        0.0423
     15 C          62.9563   83.5617   11.2380 C.ar    1  UNL1        0.0438
     16 C          62.3357   83.6492   12.6008 C.ar    1  UNL1        0.1797
     17 O          62.1891   85.1003   12.9510 O.2     1  UNL1       -0.4488
     18 O          65.4345   91.8728   11.9257 O.2     1  UNL1       -0.2747
     19 C          65.2101   91.5600   13.3755 C.2     1  UNL1        0.2267
     20 N          64.2618   90.4664   13.7687 N.am    1  UNL1       -0.2681
     21 H          64.1145   90.2611   14.7202 H       1  UNL1        0.1563
     22 C          65.9340   92.3409   14.4320 C.3     1  UNL1        0.0769
     23 C          66.1757   92.6548   15.8787 C.3     1  UNL1        0.0096
     24 C          66.9461   93.3796   14.8152 C.3     1  UNL1        0.0096
@<TRIPOS>BOND
     1    18    19    2
     2    19    20   am
     3    20     1    1
     4     1     2   ar
     5     2     3   ar
     6     3     4   ar
     7     4     7    1
     8     7     8   ar
     9     8     9   ar
    10     9    10   ar
    11    10    11   ar
    12    11    12   ar
    13     4     5   ar
    14     5    13    1
    15    13    14   ar
    16    14    15   ar
    17    15    16   ar
    18    16    17   ar
    19     5     6   ar
    20    19    22    1
    21    22    23    1
    22    23    24    1
    23     6     1   ar
    24    24    22    1
    25    12     7   ar
    26    17    13   ar
    27    20    21    1
