@<TRIPOS>MOLECULE
*****
 21 22 0 0 0
SMALL
GASTEIGER

@<TRIPOS>ATOM
      1 N          62.6577   84.7046   12.4086 N.am    1  UNL1       -0.2763
      2 C          62.6041   85.9236   11.5361 C.2     1  UNL1        0.2499
      3 O          62.9550   87.2675   12.1027 O.2     1  UNL1       -0.2699
      4 C          62.1997   85.7988   10.0971 C.ar    1  UNL1        0.0650
      5 C          63.0712   85.0462    9.1357 C.ar    1  UNL1        0.0054
      6 C          62.6668   84.9214    7.6966 C.ar    1  UNL1        0.0011
      7 C          61.3908   85.5491    7.2190 C.ar    1  UNL1        0.0123
      8 C          60.5194   86.3016    8.1804 C.ar    1  UNL1        0.0683
      9 CL         59.2434   86.9292    7.7028 Cl      1  UNL1       -0.0814
     10 C          60.9238   86.4264    9.6194 C.ar    1  UNL1        0.0725
     11 CL         60.0523   87.1789   10.5809 Cl      1  UNL1       -0.0812
     12 C          63.0621   84.8295   13.8476 C.3     1  UNL1        0.0927
     13 C          62.2068   84.5019   15.0355 C.3     1  UNL1        0.0383
     14 C          63.0089   84.7738   16.2735 C.3     1  UNL1        0.0704
     15 N          64.3601   85.2694   15.8508 N.3     1  UNL1       -0.2960
     16 C          64.3930   85.3038   14.3515 C.3     1  UNL1        0.0887
     17 H          65.0839   84.6404   16.1985 H       1  UNL1        0.1233
     18 C          62.3068   83.3607   11.8420 C.3     1  UNL1        0.0936
     19 C          64.5895   82.4106   11.0444 C.3     1  UNL1        0.0018
     20 C          63.3253   82.2596   11.8374 C.3     1  UNL1        0.0199
     21 C          63.0796   81.0074   12.6259 C.3     1  UNL1        0.0018
@<TRIPOS>BOND
     1    19    20    1
     2    20    21    1
     3    20    18    1
     4    18     1    1
     5     1     2   am
     6     2     3    2
     7     2     4    1
     8     4     5   ar
     9     5     6   ar
    10     6     7   ar
    11     7     8   ar
    12     8     9    1
    13     8    10   ar
    14    10    11    1
    15    12     1    1
    16    12    13    1
    17    13    14    1
    18    14    15    1
    19    15    16    1
    20    10     4   ar
    21    16    12    1
    22    15    17    1
@<TRIPOS>MOLECULE
*****
 21 22 0 0 0
SMALL
GASTEIGER

@<TRIPOS>ATOM
      1 N          61.7824   86.7366   11.0789 N.am    1  UNL1       -0.2763
      2 C          62.7504   86.0691   12.0102 C.2     1  UNL1        0.2499
      3 O          63.5415   86.8905   12.9847 O.2     1  UNL1       -0.2699
      4 C          62.9273   84.5802   11.9672 C.ar    1  UNL1        0.0650
      5 C          63.4996   83.9280   10.7435 C.ar    1  UNL1        0.0054
      6 C          63.6765   82.4391   10.7005 C.ar    1  UNL1        0.0011
      7 C          63.2812   81.6024   11.8811 C.ar    1  UNL1        0.0123
      8 C          62.7089   82.2546   13.1046 C.ar    1  UNL1        0.0683
      9 CL         62.3136   81.4179   14.2852 Cl      1  UNL1       -0.0814
     10 C          62.5320   83.7435   13.1477 C.ar    1  UNL1        0.0725
     11 CL         61.9597   84.3957   14.3713 Cl      1  UNL1       -0.0812
     12 C          61.6055   88.2255   11.1220 C.3     1  UNL1        0.0927
     13 C          62.5984   89.2455   10.6490 C.3     1  UNL1        0.0383
     14 C          62.0112   90.6062   10.8803 C.3     1  UNL1        0.0704
     15 N          60.6552   90.4273   11.4962 N.3     1  UNL1       -0.2960
     16 C          60.4045   88.9559   11.6456 C.3     1  UNL1        0.0887
     17 H          59.9438   90.8402   10.8931 H       1  UNL1        0.1233
     18 C          60.9913   85.9152   10.1045 C.3     1  UNL1        0.0936
     19 C          62.2666   85.5609    7.8689 C.3     1  UNL1        0.0018
     20 C          61.1246   86.1646    8.6314 C.3     1  UNL1        0.0199
     21 C          60.1160   87.0177    7.9208 C.3     1  UNL1        0.0018
@<TRIPOS>BOND
     1    19    20    1
     2    20    21    1
     3    20    18    1
     4    18     1    1
     5     1     2   am
     6     2     3    2
     7     2     4    1
     8     4     5   ar
     9     5     6   ar
    10     6     7   ar
    11     7     8   ar
    12     8     9    1
    13     8    10   ar
    14    10    11    1
    15    12     1    1
    16    12    13    1
    17    13    14    1
    18    14    15    1
    19    15    16    1
    20    10     4   ar
    21    16    12    1
    22    15    17    1
@<TRIPOS>MOLECULE
*****
 21 22 0 0 0
SMALL
GASTEIGER

@<TRIPOS>ATOM
      1 N          61.3188   88.6671    9.8293 N.am    1  UNL1       -0.2763
      2 C          61.1763   89.8728   10.7102 C.2     1  UNL1        0.2499
      3 O          59.9566   90.7396   10.6036 O.2     1  UNL1       -0.2699
      4 C          62.2534   90.2119   11.6975 C.ar    1  UNL1        0.0650
      5 C          62.2173   89.6253   13.0777 C.ar    1  UNL1        0.0054
      6 C          63.2944   89.9643   14.0650 C.ar    1  UNL1        0.0011
      7 C          64.4076   90.8900   13.6723 C.ar    1  UNL1        0.0123
      8 C          64.4436   91.4765   12.2922 C.ar    1  UNL1        0.0683
      9 CL         65.5567   92.4022   11.8995 Cl      1  UNL1       -0.0814
     10 C          63.3665   91.1375   11.3049 C.ar    1  UNL1        0.0725
     11 CL         63.4025   91.7241    9.9247 Cl      1  UNL1       -0.0812
     12 C          60.2417   88.3281    8.8419 C.3     1  UNL1        0.0927
     13 C          59.8360   89.1579    7.6601 C.3     1  UNL1        0.0383
     14 C          58.7248   88.4424    6.9508 C.3     1  UNL1        0.0704
     15 N          58.4437   87.1703    7.6942 N.3     1  UNL1       -0.2960
     16 C          59.3812   87.0997    8.8630 C.3     1  UNL1        0.0887
     17 H          58.5949   86.3699    7.0803 H       1  UNL1        0.1233
     18 C          62.5385   87.8004    9.9358 C.3     1  UNL1        0.0936
     19 C          62.7560   85.5720    8.6181 C.3     1  UNL1        0.0018
     20 C          62.4051   86.3075    9.8774 C.3     1  UNL1        0.0199
     21 C          61.9208   85.5502   11.0782 C.3     1  UNL1        0.0018
@<TRIPOS>BOND
     1    19    20    1
     2    20    21    1
     3    20    18    1
     4    18     1    1
     5     1     2   am
     6     2     3    2
     7     2     4    1
     8     4     5   ar
     9     5     6   ar
    10     6     7   ar
    11     7     8   ar
    12     8     9    1
    13     8    10   ar
    14    10    11    1
    15    12     1    1
    16    12    13    1
    17    13    14    1
    18    14    15    1
    19    15    16    1
    20    10     4   ar
    21    16    12    1
    22    15    17    1
@<TRIPOS>MOLECULE
*****
 21 22 0 0 0
SMALL
GASTEIGER

@<TRIPOS>ATOM
      1 N          65.9340   91.7571   13.1593 N.am    1  UNL1       -0.2763
      2 C          64.5593   91.2367   13.4582 C.2     1  UNL1        0.2499
      3 O          64.0009   91.3471   14.8461 O.2     1  UNL1       -0.2699
      4 C          63.7430   90.6059   12.3693 C.ar    1  UNL1        0.0650
      5 C          63.2464   91.4396   11.2255 C.ar    1  UNL1        0.0054
      6 C          62.4300   90.8088   10.1366 C.ar    1  UNL1        0.0011
      7 C          62.1103   89.3442   10.1916 C.ar    1  UNL1        0.0123
      8 C          62.6068   88.5106   11.3354 C.ar    1  UNL1        0.0683
      9 CL         62.2871   87.0460   11.3905 Cl      1  UNL1       -0.0814
     10 C          63.4232   89.1414   12.4243 C.ar    1  UNL1        0.0725
     11 CL         63.9198   88.3077   13.5682 Cl      1  UNL1       -0.0812
     12 C          66.7503   92.3879   14.2482 C.3     1  UNL1        0.0927
     13 C          67.6891   91.6722   15.1736 C.3     1  UNL1        0.0383
     14 C          68.2902   92.6871   16.1002 C.3     1  UNL1        0.0704
     15 N          67.7230   94.0302   15.7474 N.3     1  UNL1       -0.2960
     16 C          66.7713   93.8452   14.6028 C.3     1  UNL1        0.0887
     17 H          68.4750   94.6625   15.4736 H       1  UNL1        0.1233
     18 C          66.4924   91.6467   11.7714 C.3     1  UNL1        0.0936
     19 C          65.7959   94.0770   11.1732 C.3     1  UNL1        0.0018
     20 C          66.6640   92.8778   10.9319 C.3     1  UNL1        0.0199
     21 C          67.7037   92.9097    9.8512 C.3     1  UNL1        0.0018
@<TRIPOS>BOND
     1    19    20    1
     2    20    21    1
     3    20    18    1
     4    18     1    1
     5     1     2   am
     6     2     3    2
     7     2     4    1
     8     4     5   ar
     9     5     6   ar
    10     6     7   ar
    11     7     8   ar
    12     8     9    1
    13     8    10   ar
    14    10    11    1
    15    12     1    1
    16    12    13    1
    17    13    14    1
    18    14    15    1
    19    15    16    1
    20    10     4   ar
    21    16    12    1
    22    15    17    1
@<TRIPOS>MOLECULE
*****
 21 22 0 0 0
SMALL
GASTEIGER

@<TRIPOS>ATOM
      1 N          62.6657   87.9734   11.3355 N.am    1  UNL1       -0.2763
      2 C          61.8336   86.7463   11.1080 C.2     1  UNL1        0.2499
      3 O          61.6729   85.7352   12.2043 O.2     1  UNL1       -0.2699
      4 C          61.1621   86.5303    9.7842 C.ar    1  UNL1        0.0650
      5 C          59.8217   87.1468    9.5137 C.ar    1  UNL1        0.0054
      6 C          59.1502   86.9308    8.1899 C.ar    1  UNL1        0.0011
      7 C          59.8192   86.0983    7.1366 C.ar    1  UNL1        0.0123
      8 C          61.1596   85.4818    7.4071 C.ar    1  UNL1        0.0683
      9 CL         61.8286   84.6493    6.3538 Cl      1  UNL1       -0.0814
     10 C          61.8311   85.6978    8.7309 C.ar    1  UNL1        0.0725
     11 CL         63.1716   85.0813    9.0014 Cl      1  UNL1       -0.0812
     12 C          63.3372   88.1894   12.6593 C.3     1  UNL1        0.0927
     13 C          63.6510   89.5172   13.2825 C.3     1  UNL1        0.0383
     14 C          64.3205   89.2640   14.6007 C.3     1  UNL1        0.0704
     15 N          64.4205   87.7797   14.7922 N.3     1  UNL1       -0.2960
     16 C          63.8128   87.1155   13.5923 C.3     1  UNL1        0.0887
     17 H          63.9143   87.5043   15.6338 H       1  UNL1        0.1233
     18 C          62.8264   88.9846   10.2392 C.3     1  UNL1        0.0936
     19 C          63.1514   91.5616   10.1867 C.3     1  UNL1        0.0018
     20 C          62.2707   90.3676   10.4071 C.3     1  UNL1        0.0199
     21 C          60.8342   90.5567   10.7955 C.3     1  UNL1        0.0018
@<TRIPOS>BOND
     1    19    20    1
     2    20    21    1
     3    20    18    1
     4    18     1    1
     5     1     2   am
     6     2     3    2
     7     2     4    1
     8     4     5   ar
     9     5     6   ar
    10     6     7   ar
    11     7     8   ar
    12     8     9    1
    13     8    10   ar
    14    10    11    1
    15    12     1    1
    16    12    13    1
    17    13    14    1
    18    14    15    1
    19    15    16    1
    20    10     4   ar
    21    16    12    1
    22    15    17    1
@<TRIPOS>MOLECULE
*****
 21 22 0 0 0
SMALL
GASTEIGER

@<TRIPOS>ATOM
      1 N          63.1491   86.2843   12.6621 N.am    1  UNL1       -0.2763
      2 C          63.8787   85.0850   13.1906 C.2     1  UNL1        0.2499
      3 O          64.9979   85.2610   14.1738 O.2     1  UNL1       -0.2699
      4 C          63.4893   83.7096   12.7359 C.ar    1  UNL1        0.0650
      5 C          64.0269   83.1660   11.4453 C.ar    1  UNL1        0.0054
      6 C          63.6374   81.7907   10.9907 C.ar    1  UNL1        0.0011
      7 C          62.7103   80.9589   11.8266 C.ar    1  UNL1        0.0123
      8 C          62.1727   81.5025   13.1171 C.ar    1  UNL1        0.0683
      9 CL         61.2456   80.6707   13.9530 Cl      1  UNL1       -0.0814
     10 C          62.5622   82.8779   13.5717 C.ar    1  UNL1        0.0725
     11 CL         62.0246   83.4215   14.8623 Cl      1  UNL1       -0.0812
     12 C          63.5386   87.6596   13.1167 C.3     1  UNL1        0.0927
     13 C          64.2638   87.9963   14.3858 C.3     1  UNL1        0.0383
     14 C          64.4447   89.4846   14.4356 C.3     1  UNL1        0.0704
     15 N          63.8312   90.0677   13.1972 N.3     1  UNL1       -0.2960
     16 C          63.2713   88.9398   12.3821 C.3     1  UNL1        0.0887
     17 H          64.5419   90.5638   12.6594 H       1  UNL1        0.1233
     18 C          62.0300   86.1082   11.6789 C.3     1  UNL1        0.0936
     19 C          62.8095   85.3334    9.3248 C.3     1  UNL1        0.0018
     20 C          62.2566   86.3984   10.2248 C.3     1  UNL1        0.0199
     21 C          61.9302   87.7536    9.6707 C.3     1  UNL1        0.0018
@<TRIPOS>BOND
     1    19    20    1
     2    20    21    1
     3    20    18    1
     4    18     1    1
     5     1     2   am
     6     2     3    2
     7     2     4    1
     8     4     5   ar
     9     5     6   ar
    10     6     7   ar
    11     7     8   ar
    12     8     9    1
    13     8    10   ar
    14    10    11    1
    15    12     1    1
    16    12    13    1
    17    13    14    1
    18    14    15    1
    19    15    16    1
    20    10     4   ar
    21    16    12    1
    22    15    17    1
@<TRIPOS>MOLECULE
*****
 21 22 0 0 0
SMALL
GASTEIGER

@<TRIPOS>ATOM
      1 N          62.6732   84.8208   12.2027 N.am    1  UNL1       -0.2763
      2 C          62.4676   86.1318   11.5035 C.2     1  UNL1        0.2499
      3 O          63.0279   87.3922   12.0930 O.2     1  UNL1       -0.2699
      4 C          61.7017   86.1825   10.2148 C.ar    1  UNL1        0.0650
      5 C          60.3937   86.9138   10.1479 C.ar    1  UNL1        0.0054
      6 C          59.6278   86.9645    8.8592 C.ar    1  UNL1        0.0011
      7 C          60.1699   86.2838    7.6373 C.ar    1  UNL1        0.0123
      8 C          61.4778   85.5525    7.7042 C.ar    1  UNL1        0.0683
      9 CL         62.0199   84.8719    6.4823 Cl      1  UNL1       -0.0814
     10 C          62.2437   85.5019    8.9929 C.ar    1  UNL1        0.0725
     11 CL         63.5517   84.7705    9.0598 Cl      1  UNL1       -0.0812
     12 C          63.4391   84.7701   13.4914 C.3     1  UNL1        0.0927
     13 C          64.9295   84.6690   13.6280 C.3     1  UNL1        0.0383
     14 C          65.2606   84.6480   15.0908 C.3     1  UNL1        0.0704
     15 N          63.9749   84.7362   15.8584 N.3     1  UNL1       -0.2960
     16 C          62.8492   84.8117   14.8699 C.3     1  UNL1        0.0887
     17 H          63.9779   85.5714   16.4440 H       1  UNL1        0.1233
     18 C          62.1129   83.5604   11.6132 C.3     1  UNL1        0.0936
     19 C          64.0057   81.9604   10.8340 C.3     1  UNL1        0.0018
     20 C          62.8622   82.2686   11.7545 C.3     1  UNL1        0.0199
     21 C          62.4679   81.2851   12.8162 C.3     1  UNL1        0.0018
@<TRIPOS>BOND
     1    19    20    1
     2    20    21    1
     3    20    18    1
     4    18     1    1
     5     1     2   am
     6     2     3    2
     7     2     4    1
     8     4     5   ar
     9     5     6   ar
    10     6     7   ar
    11     7     8   ar
    12     8     9    1
    13     8    10   ar
    14    10    11    1
    15    12     1    1
    16    12    13    1
    17    13    14    1
    18    14    15    1
    19    15    16    1
    20    10     4   ar
    21    16    12    1
    22    15    17    1
@<TRIPOS>MOLECULE
*****
 21 22 0 0 0
SMALL
GASTEIGER

@<TRIPOS>ATOM
      1 N          62.8653   88.1356   11.4933 N.am    1  UNL1       -0.2763
      2 C          62.3371   86.7481   11.2794 C.2     1  UNL1        0.2499
      3 O          62.2129   85.8057   12.4398 O.2     1  UNL1       -0.2699
      4 C          61.9330   86.3030    9.9052 C.ar    1  UNL1        0.0650
      5 C          62.8660   85.4628    9.0843 C.ar    1  UNL1        0.0054
      6 C          62.4619   85.0177    7.7101 C.ar    1  UNL1        0.0011
      7 C          61.1247   85.4126    7.1567 C.ar    1  UNL1        0.0123
      8 C          60.1918   86.2527    7.9775 C.ar    1  UNL1        0.0683
      9 CL         58.8547   86.6477    7.4242 Cl      1  UNL1       -0.0814
     10 C          60.5959   86.6979    9.3518 C.ar    1  UNL1        0.0725
     11 CL         59.6629   87.5380   10.1727 Cl      1  UNL1       -0.0812
     12 C          63.2694   88.5808   12.8675 C.3     1  UNL1        0.0927
     13 C          63.0409   89.9413   13.4564 C.3     1  UNL1        0.0383
     14 C          63.6032   89.9449   14.8470 C.3     1  UNL1        0.0704
     15 N          64.1793   88.5867   15.1176 N.3     1  UNL1       -0.2960
     16 C          63.9730   87.7436   13.8942 C.3     1  UNL1        0.0887
     17 H          63.7051   88.1620   15.9146 H       1  UNL1        0.1233
     18 C          62.9894   89.0780   10.3329 C.3     1  UNL1        0.0936
     19 C          60.9382   90.6271   10.7105 C.3     1  UNL1        0.0018
     20 C          62.3992   90.4544   10.4180 C.3     1  UNL1        0.0199
     21 C          63.2700   91.6580   10.2107 C.3     1  UNL1        0.0018
@<TRIPOS>BOND
     1    19    20    1
     2    20    21    1
     3    20    18    1
     4    18     1    1
     5     1     2   am
     6     2     3    2
     7     2     4    1
     8     4     5   ar
     9     5     6   ar
    10     6     7   ar
    11     7     8   ar
    12     8     9    1
    13     8    10   ar
    14    10    11    1
    15    12     1    1
    16    12    13    1
    17    13    14    1
    18    14    15    1
    19    15    16    1
    20    10     4   ar
    21    16    12    1
    22    15    17    1
@<TRIPOS>MOLECULE
*****
 21 22 0 0 0
SMALL
GASTEIGER

@<TRIPOS>ATOM
      1 N          63.2302   84.7856   12.5470 N.am    1  UNL1       -0.2763
      2 C          64.1879   85.0807   13.6631 C.2     1  UNL1        0.2499
      3 O          65.3317   84.1493   13.9358 O.2     1  UNL1       -0.2699
      4 C          64.0019   86.3071   14.5065 C.ar    1  UNL1        0.0650
      5 C          64.4113   87.6499   13.9780 C.ar    1  UNL1        0.0054
      6 C          64.2253   88.8763   14.8214 C.ar    1  UNL1        0.0011
      7 C          63.6299   88.7599   16.1933 C.ar    1  UNL1        0.0123
      8 C          63.2206   87.4170   16.7217 C.ar    1  UNL1        0.0683
      9 CL         62.6252   87.3006   18.0937 Cl      1  UNL1       -0.0814
     10 C          63.4066   86.1907   15.8783 C.ar    1  UNL1        0.0725
     11 CL         62.9972   84.8478   16.4068 Cl      1  UNL1       -0.0812
     12 C          63.4162   83.5592   11.7036 C.3     1  UNL1        0.0927
     13 C          64.3975   83.4024   10.5800 C.3     1  UNL1        0.0383
     14 C          64.2413   82.0206   10.0177 C.3     1  UNL1        0.0704
     15 N          63.1635   81.3234   10.7937 N.3     1  UNL1       -0.2960
     16 C          62.6536   82.2744   11.8356 C.3     1  UNL1        0.0887
     17 H          63.5438   80.4899   11.2422 H       1  UNL1        0.1233
     18 C          62.0864   85.7170   12.2743 C.3     1  UNL1        0.0936
     19 C          61.8108   85.7486    9.6912 C.3     1  UNL1        0.0018
     20 C          62.0305   86.4783   10.9831 C.3     1  UNL1        0.0199
     21 C          62.1944   87.9693   10.9839 C.3     1  UNL1        0.0018
@<TRIPOS>BOND
     1    19    20    1
     2    20    21    1
     3    20    18    1
     4    18     1    1
     5     1     2   am
     6     2     3    2
     7     2     4    1
     8     4     5   ar
     9     5     6   ar
    10     6     7   ar
    11     7     8   ar
    12     8     9    1
    13     8    10   ar
    14    10    11    1
    15    12     1    1
    16    12    13    1
    17    13    14    1
    18    14    15    1
    19    15    16    1
    20    10     4   ar
    21    16    12    1
    22    15    17    1
