@<TRIPOS>MOLECULE
*****
 22 23 0 0 0
SMALL
GASTEIGER

@<TRIPOS>ATOM
      1 C          59.8912   88.4680    8.4631 C.ar    1  UNL1        0.1754
      2 C          60.0943   87.0822    7.9262 C.ar    1  UNL1        0.0403
      3 C          60.8775   86.0781    8.7189 C.ar    1  UNL1        0.0063
      4 C          61.4576   86.4598   10.0485 C.ar    1  UNL1        0.0373
      5 C          61.2545   87.8456   10.5853 C.ar    1  UNL1        0.1753
      6 C          60.4713   88.8497    9.7927 C.ar    1  UNL1        0.2061
      7 C          59.4095   89.6793    6.2158 C.3     1  UNL1        0.2526
      8 O          59.1080   89.4721    7.6704 O.3     1  UNL1       -0.4683
      9 C          62.2409   85.4557   10.8411 C.2     1  UNL1        0.0064
     10 C          63.0549   84.4126   10.1347 C.2     1  UNL1        0.0421
     11 C          63.8382   83.4085   10.9274 C.2     1  UNL1        0.1957
     12 O          64.8835   82.5707   10.2525 O.2     1  UNL1       -0.2866
     13 C          63.5761   83.2422   12.3949 C.ar    1  UNL1        0.0420
     14 C          62.4652   82.3490   12.8619 C.ar    1  UNL1        0.0239
     15 C          62.2031   82.1827   14.3295 C.ar    1  UNL1        0.0990
     16 N          63.0519   82.9096   15.3300 N.ar    1  UNL1       -0.2423
     17 C          64.1628   83.8029   14.8630 C.ar    1  UNL1        0.0990
     18 C          64.4248   83.9691   13.3955 C.ar    1  UNL1        0.0239
     19 O          61.8346   88.2273   11.9150 O.3     1  UNL1       -0.4683
     20 C          63.0576   89.0934   11.9788 C.3     1  UNL1        0.2526
     21 O          60.2682   90.2355   10.3296 O.3     1  UNL1       -0.4654
     22 C          59.3256   90.4660   11.4735 C.3     1  UNL1        0.2528
@<TRIPOS>BOND
     1     7     8    1
     2     8     1    1
     3     1     2   ar
     4     2     3   ar
     5     3     4   ar
     6     4     9    1
     7     9    10    2
     8    10    11    1
     9    11    12    2
    10    11    13    1
    11    13    14   ar
    12    14    15   ar
    13    15    16   ar
    14    16    17   ar
    15    17    18   ar
    16     4     5   ar
    17     5    19    1
    18    19    20    1
    19     5     6   ar
    20     6    21    1
    21    21    22    1
    22     6     1   ar
    23    18    13   ar
@<TRIPOS>MOLECULE
*****
 22 23 0 0 0
SMALL
GASTEIGER

@<TRIPOS>ATOM
      1 C          65.6744   93.0492   11.8354 C.ar    1  UNL1        0.1754
      2 C          65.0148   92.6726   10.5420 C.ar    1  UNL1        0.0403
      3 C          63.9615   91.6049   10.5203 C.ar    1  UNL1        0.0063
      4 C          63.5676   90.9139   11.7920 C.ar    1  UNL1        0.0373
      5 C          64.2272   91.2906   13.0855 C.ar    1  UNL1        0.1753
      6 C          65.2806   92.3583   13.1072 C.ar    1  UNL1        0.2061
      7 C          66.4774   95.4315   11.1795 C.3     1  UNL1        0.2526
      8 O          66.7278   94.1169   11.8571 O.3     1  UNL1       -0.4683
      9 C          62.5142   89.8463   11.7704 C.2     1  UNL1        0.0064
     10 C          62.3781   88.9512   10.5744 C.2     1  UNL1        0.0421
     11 C          61.3247   87.8836   10.5527 C.2     1  UNL1        0.1957
     12 O          60.4041   87.7143   11.7248 O.2     1  UNL1       -0.2866
     13 C          61.1919   86.9851    9.3588 C.ar    1  UNL1        0.0420
     14 C          62.3646   86.1709    8.8988 C.ar    1  UNL1        0.0239
     15 C          62.2318   85.2725    7.7049 C.ar    1  UNL1        0.0990
     16 N          60.9263   85.1883    6.9711 N.ar    1  UNL1       -0.2423
     17 C          59.7535   86.0027    7.4312 C.ar    1  UNL1        0.0990
     18 C          59.8863   86.9010    8.6251 C.ar    1  UNL1        0.0239
     19 O          63.8334   90.5996   14.3573 O.3     1  UNL1       -0.4683
     20 C          64.4318   89.2685   14.7040 C.3     1  UNL1        0.2526
     21 O          65.9402   92.7349   14.4007 O.3     1  UNL1       -0.4654
     22 C          67.1384   91.9714   14.8818 C.3     1  UNL1        0.2528
@<TRIPOS>BOND
     1     7     8    1
     2     8     1    1
     3     1     2   ar
     4     2     3   ar
     5     3     4   ar
     6     4     9    1
     7     9    10    2
     8    10    11    1
     9    11    12    2
    10    11    13    1
    11    13    14   ar
    12    14    15   ar
    13    15    16   ar
    14    16    17   ar
    15    17    18   ar
    16     4     5   ar
    17     5    19    1
    18    19    20    1
    19     5     6   ar
    20     6    21    1
    21    21    22    1
    22     6     1   ar
    23    18    13   ar
@<TRIPOS>MOLECULE
*****
 22 23 0 0 0
SMALL
GASTEIGER

@<TRIPOS>ATOM
      1 C          63.7868   83.8062   13.9013 C.ar    1  UNL1        0.1754
      2 C          64.3496   84.5899   15.0498 C.ar    1  UNL1        0.0403
      3 C          64.3739   86.0887   14.9947 C.ar    1  UNL1        0.0063
      4 C          63.8355   86.8038   13.7911 C.ar    1  UNL1        0.0373
      5 C          63.2727   86.0201   12.6426 C.ar    1  UNL1        0.1753
      6 C          63.2484   84.5213   12.6977 C.ar    1  UNL1        0.2061
      7 C          62.4624   81.5850   14.1507 C.3     1  UNL1        0.2526
      8 O          63.7625   82.3074   13.9564 O.3     1  UNL1       -0.4683
      9 C          63.8598   88.3026   13.7359 C.2     1  UNL1        0.0064
     10 C          64.3219   89.0895   14.9264 C.2     1  UNL1        0.0421
     11 C          64.3462   90.5882   14.8713 C.2     1  UNL1        0.1957
     12 O          63.3466   91.3840   15.6570 O.2     1  UNL1       -0.2866
     13 C          65.3703   91.2913   14.0303 C.ar    1  UNL1        0.0420
     14 C          64.9693   91.9171   12.7274 C.ar    1  UNL1        0.0239
     15 C          65.9934   92.6201   11.8864 C.ar    1  UNL1        0.0990
     16 N          67.4183   92.6974   12.3485 N.ar    1  UNL1       -0.2423
     17 C          67.8193   92.0716   13.6515 C.ar    1  UNL1        0.0990
     18 C          66.7953   91.3686   14.4923 C.ar    1  UNL1        0.0239
     19 O          62.7342   86.7351   11.4389 O.3     1  UNL1       -0.4683
     20 C          61.2747   86.6466   11.1046 C.3     1  UNL1        0.2526
     21 O          62.6856   83.7376   11.5491 O.3     1  UNL1       -0.4654
     22 C          63.6063   83.1342   10.5302 C.3     1  UNL1        0.2528
@<TRIPOS>BOND
     1     7     8    1
     2     8     1    1
     3     1     2   ar
     4     2     3   ar
     5     3     4   ar
     6     4     9    1
     7     9    10    2
     8    10    11    1
     9    11    12    2
    10    11    13    1
    11    13    14   ar
    12    14    15   ar
    13    15    16   ar
    14    16    17   ar
    15    17    18   ar
    16     4     5   ar
    17     5    19    1
    18    19    20    1
    19     5     6   ar
    20     6    21    1
    21    21    22    1
    22     6     1   ar
    23    18    13   ar
@<TRIPOS>MOLECULE
*****
 22 23 0 0 0
SMALL
GASTEIGER

@<TRIPOS>ATOM
      1 C          61.0941   88.0354   10.1169 C.ar    1  UNL1        0.1754
      2 C          61.1148   89.4324    9.5711 C.ar    1  UNL1        0.0403
      3 C          62.0089   90.4660   10.1893 C.ar    1  UNL1        0.0063
      4 C          62.8824   90.1026   11.3533 C.ar    1  UNL1        0.0373
      5 C          62.8617   88.7056   11.8991 C.ar    1  UNL1        0.1753
      6 C          61.9676   87.6720   11.2808 C.ar    1  UNL1        0.2061
      7 C          60.5687   86.3806    8.1841 C.3     1  UNL1        0.2526
      8 O          60.1999   87.0018    9.4986 O.3     1  UNL1       -0.4683
      9 C          63.7766   91.1361   11.9715 C.2     1  UNL1        0.0064
     10 C          64.6507   91.9892   11.1008 C.2     1  UNL1        0.0421
     11 C          65.5449   93.0227   11.7190 C.2     1  UNL1        0.1957
     12 O          65.7687   93.0305   13.2022 O.2     1  UNL1       -0.2866
     13 C          66.2152   94.0487   10.8540 C.ar    1  UNL1        0.0420
     14 C          67.0104   93.6169    9.6577 C.ar    1  UNL1        0.0239
     15 C          67.6808   94.6428    8.7927 C.ar    1  UNL1        0.0990
     16 N          67.5559   96.1004    9.1240 N.ar    1  UNL1       -0.2423
     17 C          66.7607   96.5321   10.3204 C.ar    1  UNL1        0.0990
     18 C          66.0904   95.5063   11.1854 C.ar    1  UNL1        0.0239
     19 O          63.7352   88.3421   13.0631 O.3     1  UNL1       -0.4683
     20 C          63.7040   89.1720   14.3122 C.3     1  UNL1        0.2526
     21 O          61.9469   86.2749   11.8267 O.3     1  UNL1       -0.4654
     22 C          62.6357   85.1690   11.0833 C.3     1  UNL1        0.2528
@<TRIPOS>BOND
     1     7     8    1
     2     8     1    1
     3     1     2   ar
     4     2     3   ar
     5     3     4   ar
     6     4     9    1
     7     9    10    2
     8    10    11    1
     9    11    12    2
    10    11    13    1
    11    13    14   ar
    12    14    15   ar
    13    15    16   ar
    14    16    17   ar
    15    17    18   ar
    16     4     5   ar
    17     5    19    1
    18    19    20    1
    19     5     6   ar
    20     6    21    1
    21    21    22    1
    22     6     1   ar
    23    18    13   ar
@<TRIPOS>MOLECULE
*****
 22 23 0 0 0
SMALL
GASTEIGER

@<TRIPOS>ATOM
      1 C          65.0428   91.9754   12.7624 C.ar    1  UNL1        0.1754
      2 C          65.8949   91.5388   13.9171 C.ar    1  UNL1        0.0403
      3 C          65.5447   90.2954   14.6796 C.ar    1  UNL1        0.0063
      4 C          64.3426   89.4886   14.2874 C.ar    1  UNL1        0.0373
      5 C          63.4905   89.9252   13.1327 C.ar    1  UNL1        0.1753
      6 C          63.8407   91.1686   12.3702 C.ar    1  UNL1        0.2061
      7 C          66.3779   93.1535   10.8704 C.3     1  UNL1        0.2526
      8 O          65.3930   93.2188   11.9999 O.3     1  UNL1       -0.4683
      9 C          63.9924   88.2453   15.0499 C.2     1  UNL1        0.0064
     10 C          64.3505   86.8988   14.4942 C.2     1  UNL1        0.0421
     11 C          64.0004   85.6555   15.2568 C.2     1  UNL1        0.1957
     12 O          63.9388   85.6869   16.7551 O.2     1  UNL1       -0.2866
     13 C          63.7118   84.3806   14.5208 C.ar    1  UNL1        0.0420
     14 C          62.6245   83.4664   15.0022 C.ar    1  UNL1        0.0239
     15 C          62.3359   82.1915   14.2663 C.ar    1  UNL1        0.0990
     16 N          63.1347   81.8310   13.0489 N.ar    1  UNL1       -0.2423
     17 C          64.2221   82.7453   12.5675 C.ar    1  UNL1        0.0990
     18 C          64.5106   84.0201   13.3035 C.ar    1  UNL1        0.0239
     19 O          62.2883   89.1184   12.7405 O.3     1  UNL1       -0.4683
     20 C          62.3574   88.1946   11.5608 C.3     1  UNL1        0.2526
     21 O          62.9886   91.6052   11.2154 O.3     1  UNL1       -0.4654
     22 C          63.3694   91.2232    9.8158 C.3     1  UNL1        0.2528
@<TRIPOS>BOND
     1     7     8    1
     2     8     1    1
     3     1     2   ar
     4     2     3   ar
     5     3     4   ar
     6     4     9    1
     7     9    10    2
     8    10    11    1
     9    11    12    2
    10    11    13    1
    11    13    14   ar
    12    14    15   ar
    13    15    16   ar
    14    16    17   ar
    15    17    18   ar
    16     4     5   ar
    17     5    19    1
    18    19    20    1
    19     5     6   ar
    20     6    21    1
    21    21    22    1
    22     6     1   ar
    23    18    13   ar
@<TRIPOS>MOLECULE
*****
 22 23 0 0 0
SMALL
GASTEIGER

@<TRIPOS>ATOM
      1 C          62.9347   85.1499   12.4934 C.ar    1  UNL1        0.1754
      2 C          63.7419   85.0613   13.7545 C.ar    1  UNL1        0.0403
      3 C          64.2767   86.3094   14.3919 C.ar    1  UNL1        0.0063
      4 C          64.0044   87.6460   13.7682 C.ar    1  UNL1        0.0373
      5 C          63.1972   87.7347   12.5071 C.ar    1  UNL1        0.1753
      6 C          62.6623   86.4866   11.8696 C.ar    1  UNL1        0.2061
      7 C          62.8752   82.5581   12.3232 C.3     1  UNL1        0.2526
      8 O          62.3999   83.9019   11.8559 O.3     1  UNL1       -0.4683
      9 C          64.5392   88.8941   14.4056 C.2     1  UNL1        0.0064
     10 C          63.5941   89.9048   14.9846 C.2     1  UNL1        0.0421
     11 C          64.1289   91.1529   15.6221 C.2     1  UNL1        0.1957
     12 O          63.3742   91.8057   16.7420 O.2     1  UNL1       -0.2866
     13 C          65.4184   91.7481   15.1395 C.ar    1  UNL1        0.0420
     14 C          66.3272   92.4510   16.1038 C.ar    1  UNL1        0.0239
     15 C          67.6168   93.0463   15.6213 C.ar    1  UNL1        0.0990
     16 N          67.9975   92.9386   14.1744 N.ar    1  UNL1       -0.2423
     17 C          67.0886   92.2356   13.2100 C.ar    1  UNL1        0.0990
     18 C          65.7991   91.6404   13.6926 C.ar    1  UNL1        0.0239
     19 O          62.9247   89.0714   11.8833 O.3     1  UNL1       -0.4683
     20 C          61.5352   89.6361   11.8968 C.3     1  UNL1        0.2526
     21 O          61.8551   86.5753   10.6084 O.3     1  UNL1       -0.4654
     22 C          62.4799   86.2208    9.2916 C.3     1  UNL1        0.2528
@<TRIPOS>BOND
     1     7     8    1
     2     8     1    1
     3     1     2   ar
     4     2     3   ar
     5     3     4   ar
     6     4     9    1
     7     9    10    2
     8    10    11    1
     9    11    12    2
    10    11    13    1
    11    13    14   ar
    12    14    15   ar
    13    15    16   ar
    14    16    17   ar
    15    17    18   ar
    16     4     5   ar
    17     5    19    1
    18    19    20    1
    19     5     6   ar
    20     6    21    1
    21    21    22    1
    22     6     1   ar
    23    18    13   ar
@<TRIPOS>MOLECULE
*****
 22 23 0 0 0
SMALL
GASTEIGER

@<TRIPOS>ATOM
      1 C          64.0279   90.5143   13.3972 C.ar    1  UNL1        0.1754
      2 C          64.6307   89.6746   14.4841 C.ar    1  UNL1        0.0403
      3 C          64.4356   88.1874   14.4784 C.ar    1  UNL1        0.0063
      4 C          63.6376   87.5398   13.3857 C.ar    1  UNL1        0.0373
      5 C          63.0348   88.3796   12.2989 C.ar    1  UNL1        0.1753
      6 C          63.2299   89.8668   12.3046 C.ar    1  UNL1        0.2061
      7 C          65.4884   92.5941   12.8575 C.3     1  UNL1        0.2526
      8 O          64.2230   92.0016   13.4030 O.3     1  UNL1       -0.4683
      9 C          63.4425   86.0526   13.3800 C.2     1  UNL1        0.0064
     10 C          64.3156   85.1783   14.2304 C.2     1  UNL1        0.0421
     11 C          64.1205   83.6911   14.2247 C.2     1  UNL1        0.1957
     12 O          64.1528   82.9254   15.5141 O.2     1  UNL1       -0.2866
     13 C          63.8930   82.9695   12.9294 C.ar    1  UNL1        0.0420
     14 C          62.9864   81.7753   12.8854 C.ar    1  UNL1        0.0239
     15 C          62.7589   81.0537   11.5901 C.ar    1  UNL1        0.0990
     16 N          63.4380   81.5264   10.3390 N.ar    1  UNL1       -0.2423
     17 C          64.3446   82.7207   10.3831 C.ar    1  UNL1        0.0990
     18 C          64.5720   83.4422   11.6783 C.ar    1  UNL1        0.0239
     19 O          62.2367   87.7320   11.2062 O.3     1  UNL1       -0.4683
     20 C          60.7400   87.8313   11.2108 C.3     1  UNL1        0.2526
     21 O          62.6270   90.7065   11.2176 O.3     1  UNL1       -0.4654
     22 C          63.4928   91.2416   10.1158 C.3     1  UNL1        0.2528
@<TRIPOS>BOND
     1     7     8    1
     2     8     1    1
     3     1     2   ar
     4     2     3   ar
     5     3     4   ar
     6     4     9    1
     7     9    10    2
     8    10    11    1
     9    11    12    2
    10    11    13    1
    11    13    14   ar
    12    14    15   ar
    13    15    16   ar
    14    16    17   ar
    15    17    18   ar
    16     4     5   ar
    17     5    19    1
    18    19    20    1
    19     5     6   ar
    20     6    21    1
    21    21    22    1
    22     6     1   ar
    23    18    13   ar
@<TRIPOS>MOLECULE
*****
 22 23 0 0 0
SMALL
GASTEIGER

@<TRIPOS>ATOM
      1 C          62.0376   85.3749    8.1121 C.ar    1  UNL1        0.1754
      2 C          63.0232   84.4202    8.7177 C.ar    1  UNL1        0.0403
      3 C          63.2513   84.4178   10.2003 C.ar    1  UNL1        0.0063
      4 C          62.4937   85.3702   11.0772 C.ar    1  UNL1        0.0373
      5 C          61.5081   86.3249   10.4715 C.ar    1  UNL1        0.1753
      6 C          61.2800   86.3273    8.9890 C.ar    1  UNL1        0.2061
      7 C          62.1932   84.1812    5.8097 C.3     1  UNL1        0.2526
      8 O          61.8095   85.3773    6.6295 O.3     1  UNL1       -0.4683
      9 C          62.7218   85.3678   12.5597 C.2     1  UNL1        0.0064
     10 C          63.6142   84.3338   13.1796 C.2     1  UNL1        0.0421
     11 C          63.8423   84.3314   14.6622 C.2     1  UNL1        0.1957
     12 O          64.3303   83.0876   15.3439 O.2     1  UNL1       -0.2866
     13 C          63.5823   85.5729   15.4630 C.ar    1  UNL1        0.0420
     14 C          62.7787   85.4953   16.7272 C.ar    1  UNL1        0.0239
     15 C          62.5187   86.7368   17.5280 C.ar    1  UNL1        0.0990
     16 N          63.0623   88.0558   17.0645 N.ar    1  UNL1       -0.2423
     17 C          63.8658   88.1333   15.8002 C.ar    1  UNL1        0.0990
     18 C          64.1258   86.8918   14.9995 C.ar    1  UNL1        0.0239
     19 O          60.7504   87.2774   11.3484 O.3     1  UNL1       -0.4683
     20 C          61.0944   88.7374   11.3428 C.3     1  UNL1        0.2526
     21 O          60.2943   87.2821    8.3833 O.3     1  UNL1       -0.4654
     22 C          59.0147   86.7661    7.7947 C.3     1  UNL1        0.2528
@<TRIPOS>BOND
     1     7     8    1
     2     8     1    1
     3     1     2   ar
     4     2     3   ar
     5     3     4   ar
     6     4     9    1
     7     9    10    2
     8    10    11    1
     9    11    12    2
    10    11    13    1
    11    13    14   ar
    12    14    15   ar
    13    15    16   ar
    14    16    17   ar
    15    17    18   ar
    16     4     5   ar
    17     5    19    1
    18    19    20    1
    19     5     6   ar
    20     6    21    1
    21    21    22    1
    22     6     1   ar
    23    18    13   ar
@<TRIPOS>MOLECULE
*****
 22 23 0 0 0
SMALL
GASTEIGER

@<TRIPOS>ATOM
      1 C          63.5158   82.6266   10.7913 C.ar    1  UNL1        0.1754
      2 C          63.4793   83.6396    9.6856 C.ar    1  UNL1        0.0403
      3 C          63.0908   85.0581    9.9805 C.ar    1  UNL1        0.0063
      4 C          62.7388   85.4636   11.3810 C.ar    1  UNL1        0.0373
      5 C          62.7753   84.4507   12.4867 C.ar    1  UNL1        0.1753
      6 C          63.1638   83.0322   12.1918 C.ar    1  UNL1        0.2061
      7 C          62.8496   80.1964   10.1587 C.3     1  UNL1        0.2526
      8 O          63.9043   81.2082   10.4964 O.3     1  UNL1       -0.4683
      9 C          62.3503   86.8821   11.6759 C.2     1  UNL1        0.0064
     10 C          62.3629   87.9065   10.5802 C.2     1  UNL1        0.0421
     11 C          61.9745   89.3249   10.8751 C.2     1  UNL1        0.1957
     12 O          60.5484   89.7611   10.7134 O.2     1  UNL1       -0.2866
     13 C          63.0121   90.3073   11.3317 C.ar    1  UNL1        0.0420
     14 C          63.5731   91.3088   10.3662 C.ar    1  UNL1        0.0239
     15 C          64.6107   92.2911   10.8228 C.ar    1  UNL1        0.0990
     16 N          65.0872   92.2719   12.2450 N.ar    1  UNL1       -0.2423
     17 C          64.5261   91.2704   13.2105 C.ar    1  UNL1        0.0990
     18 C          63.4886   90.2881   12.7539 C.ar    1  UNL1        0.0239
     19 O          62.4233   84.8562   13.8873 O.3     1  UNL1       -0.4683
     20 C          63.5094   85.1063   14.8911 C.3     1  UNL1        0.2526
     21 O          63.2003   82.0192   13.2976 O.3     1  UNL1       -0.4654
     22 C          61.9461   81.3004   13.6978 C.3     1  UNL1        0.2528
@<TRIPOS>BOND
     1     7     8    1
     2     8     1    1
     3     1     2   ar
     4     2     3   ar
     5     3     4   ar
     6     4     9    1
     7     9    10    2
     8    10    11    1
     9    11    12    2
    10    11    13    1
    11    13    14   ar
    12    14    15   ar
    13    15    16   ar
    14    16    17   ar
    15    17    18   ar
    16     4     5   ar
    17     5    19    1
    18    19    20    1
    19     5     6   ar
    20     6    21    1
    21    21    22    1
    22     6     1   ar
    23    18    13   ar
