@<TRIPOS>MOLECULE
*****
 40 43 0 0 0
SMALL
GASTEIGER

@<TRIPOS>ATOM
      1 N          62.8046   88.2645   12.0148 N.am    1  UNL1       -0.2528
      2 C          63.1642   89.7096   12.1944 C.2     1  UNL1        0.2697
      3 O          62.5851   90.7462   11.2777 O.2     1  UNL1       -0.2704
      4 C          64.1030   90.1183   13.2906 C.3     1  UNL1        0.2199
      5 C          63.8151   91.4583   12.6812 C.3     1  UNL1        0.0579
      6 O          64.6821   89.0818   14.2072 O.3     1  UNL1       -0.4686
      7 C          64.3225   87.6366   14.0277 C.ar    1  UNL1        0.1529
      8 C          64.9017   86.6001   14.9443 C.ar    1  UNL1        0.0382
      9 C          64.5420   85.1550   14.7647 C.ar    1  UNL1        0.0033
     10 C          63.6033   84.7464   13.6685 C.ar    1  UNL1        0.0053
     11 C          63.0241   85.7829   12.7518 C.ar    1  UNL1        0.0181
     12 C          63.3837   87.2280   12.9314 C.ar    1  UNL1        0.0881
     13 C          63.2436   83.3012   13.4889 C.ar    1  UNL1        0.0449
     14 C          62.4605   82.5858   14.5495 C.ar    1  UNL1        0.1293
     15 N          62.0369   83.3156   15.7896 N.pl3   1  UNL1       -0.3425
     16 N          62.1009   81.1406   14.3699 N.ar    1  UNL1       -0.1995
     17 C          62.5245   80.4109   13.1297 C.ar    1  UNL1        0.2145
     18 N          62.1649   78.9658   12.9501 N.pl3   1  UNL1       -0.3274
     19 N          63.3077   81.1263   12.0691 N.ar    1  UNL1       -0.2183
     20 C          63.6672   82.5714   12.2487 C.ar    1  UNL1        0.0645
     21 H          62.2729   84.2641   15.9075 H       1  UNL1        0.1437
     22 H          61.5228   82.8461   16.4857 H       1  UNL1        0.1437
     23 H          61.6508   78.4962   13.6462 H       1  UNL1        0.1452
     24 H          62.4429   78.4868   12.1362 H       1  UNL1        0.1452
     25 C          64.4505   83.2869   11.1881 C.3     1  UNL1        0.0460
     26 C          63.8450   83.5164    9.8351 C.3     1  UNL1        0.0067
     27 C          64.9418   90.9922   14.1752 C.ar    1  UNL1        0.0264
     28 C          64.4238   91.4187   15.5168 C.ar    1  UNL1        0.0293
     29 C          65.2626   92.2928   16.4014 C.ar    1  UNL1        0.1422
     30 F          64.7446   92.7192   17.7430 F       1  UNL1       -0.2041
     31 C          66.6194   92.7403   15.9444 C.ar    1  UNL1        0.0592
     32 C          67.1373   92.3138   14.6028 C.ar    1  UNL1        0.1422
     33 F          68.4941   92.7614   14.1458 F       1  UNL1       -0.2041
     34 C          66.2985   91.4398   13.7183 C.ar    1  UNL1        0.0293
     35 C          61.8658   87.8559   10.9185 C.3     1  UNL1        0.1010
     36 C          62.4096   87.3528    9.6142 C.3     1  UNL1        0.0539
     37 C          61.6242   86.3627    8.8062 C.3     1  UNL1        0.1439
     38 O          60.1299   86.3130    8.9273 O.3     1  UNL1       -0.3537
     39 C          59.3666   88.3662    7.5303 C.3     1  UNL1        0.0346
     40 C          59.2700   86.9038    7.8496 C.3     1  UNL1        0.1422
@<TRIPOS>BOND
     1    39    40    1
     2    40    38    1
     3    38    37    1
     4    37    36    1
     5    36    35    1
     6    35     1    1
     7     1     2   am
     8     2     3    2
     9     2     4    1
    10     4     5    1
    11     4    27    1
    12    27    28   ar
    13    28    29   ar
    14    29    30    1
    15    29    31   ar
    16    31    32   ar
    17    32    33    1
    18    32    34   ar
    19     4     6    1
    20     6     7    1
    21     7     8   ar
    22     8     9   ar
    23     9    10   ar
    24    10    13    1
    25    13    14   ar
    26    14    15    1
    27    14    16   ar
    28    16    17   ar
    29    17    18    1
    30    17    19   ar
    31    19    20   ar
    32    20    25    1
    33    25    26    1
    34    10    11   ar
    35    11    12   ar
    36    12     1    1
    37    34    27   ar
    38    12     7   ar
    39    20    13   ar
    40    15    21    1
    41    15    22    1
    42    18    23    1
    43    18    24    1
@<TRIPOS>MOLECULE
*****
 40 43 0 0 0
SMALL
GASTEIGER

@<TRIPOS>ATOM
      1 N          62.9385   88.2970   11.9640 N.am    1  UNL1       -0.2528
      2 C          63.3059   89.7395   12.1490 C.2     1  UNL1        0.2697
      3 O          62.7884   90.7738   11.1938 O.2     1  UNL1       -0.2704
      4 C          64.1909   90.1476   13.2893 C.3     1  UNL1        0.2199
      5 C          63.9519   91.4850   12.6533 C.3     1  UNL1        0.0579
      6 O          64.7084   89.1134   14.2445 O.3     1  UNL1       -0.4686
      7 C          64.3410   87.6709   14.0595 C.ar    1  UNL1        0.1529
      8 C          64.8585   86.6366   15.0147 C.ar    1  UNL1        0.0382
      9 C          64.4910   85.1942   14.8296 C.ar    1  UNL1        0.0033
     10 C          63.6060   84.7860   13.6894 C.ar    1  UNL1        0.0053
     11 C          63.0885   85.8202   12.7342 C.ar    1  UNL1        0.0181
     12 C          63.4560   87.2627   12.9192 C.ar    1  UNL1        0.0881
     13 C          63.2386   83.3435   13.5043 C.ar    1  UNL1        0.0449
     14 C          62.4522   82.6282   14.5626 C.ar    1  UNL1        0.1293
     15 N          62.0332   83.3553   15.8058 N.pl3   1  UNL1       -0.3425
     16 N          62.0847   81.1856   14.3775 N.ar    1  UNL1       -0.1995
     17 C          62.5037   80.4585   13.1343 C.ar    1  UNL1        0.2145
     18 N          62.1363   79.0160   12.9492 N.pl3   1  UNL1       -0.3274
     19 N          63.2902   81.1739   12.0760 N.ar    1  UNL1       -0.2183
     20 C          63.6576   82.6163   12.2611 C.ar    1  UNL1        0.0645
     21 H          62.2744   84.3021   15.9273 H       1  UNL1        0.1437
     22 H          61.5170   82.8858   16.5004 H       1  UNL1        0.1437
     23 H          61.6201   78.5465   13.6438 H       1  UNL1        0.1452
     24 H          62.4113   78.5388   12.1332 H       1  UNL1        0.1452
     25 C          64.4440   83.3317   11.2028 C.3     1  UNL1        0.0460
     26 C          63.8526   83.5383    9.8399 C.3     1  UNL1        0.0067
     27 C          64.9929   91.0203   14.2087 C.ar    1  UNL1        0.0264
     28 C          66.3618   91.4797   13.8022 C.ar    1  UNL1        0.0293
     29 C          67.1638   92.3524   14.7216 C.ar    1  UNL1        0.1422
     30 F          68.5326   92.8118   14.3151 F       1  UNL1       -0.2041
     31 C          66.5969   92.7656   16.0475 C.ar    1  UNL1        0.0592
     32 C          65.2281   92.3061   16.4539 C.ar    1  UNL1        0.1422
     33 F          64.6612   92.7193   17.7798 F       1  UNL1       -0.2041
     34 C          64.4261   91.4335   15.5345 C.ar    1  UNL1        0.0293
     35 C          62.0535   87.8888   10.8237 C.3     1  UNL1        0.1010
     36 C          60.6012   88.2644   10.8298 C.3     1  UNL1        0.0539
     37 C          60.0481   89.1383    9.7434 C.3     1  UNL1        0.1439
     38 O          59.7889   88.5676    8.3807 O.3     1  UNL1       -0.3537
     39 C          60.1822   86.0728    7.7715 C.3     1  UNL1        0.0346
     40 C          59.2699   87.1673    8.2403 C.3     1  UNL1        0.1422
@<TRIPOS>BOND
     1    39    40    1
     2    40    38    1
     3    38    37    1
     4    37    36    1
     5    36    35    1
     6    35     1    1
     7     1     2   am
     8     2     3    2
     9     2     4    1
    10     4     5    1
    11     4    27    1
    12    27    28   ar
    13    28    29   ar
    14    29    30    1
    15    29    31   ar
    16    31    32   ar
    17    32    33    1
    18    32    34   ar
    19     4     6    1
    20     6     7    1
    21     7     8   ar
    22     8     9   ar
    23     9    10   ar
    24    10    13    1
    25    13    14   ar
    26    14    15    1
    27    14    16   ar
    28    16    17   ar
    29    17    18    1
    30    17    19   ar
    31    19    20   ar
    32    20    25    1
    33    25    26    1
    34    10    11   ar
    35    11    12   ar
    36    12     1    1
    37    34    27   ar
    38    12     7   ar
    39    20    13   ar
    40    15    21    1
    41    15    22    1
    42    18    23    1
    43    18    24    1
@<TRIPOS>MOLECULE
*****
 40 43 0 0 0
SMALL
GASTEIGER

@<TRIPOS>ATOM
      1 N          63.0612   88.2751   11.8898 N.am    1  UNL1       -0.2528
      2 C          63.4242   89.7189   12.0730 C.2     1  UNL1        0.2697
      3 O          62.9700   90.7393   11.0717 O.2     1  UNL1       -0.2704
      4 C          64.2415   90.1423   13.2574 C.3     1  UNL1        0.2199
      5 C          64.0477   91.4699   12.5866 C.3     1  UNL1        0.0579
      6 O          64.6957   89.1220   14.2586 O.3     1  UNL1       -0.4686
      7 C          64.3327   87.6781   14.0755 C.ar    1  UNL1        0.1529
      8 C          64.7869   86.6577   15.0767 C.ar    1  UNL1        0.0382
      9 C          64.4239   85.2139   14.8936 C.ar    1  UNL1        0.0033
     10 C          63.6066   84.7905   13.7091 C.ar    1  UNL1        0.0053
     11 C          63.1524   85.8108   12.7079 C.ar    1  UNL1        0.0181
     12 C          63.5154   87.2546   12.8911 C.ar    1  UNL1        0.0881
     13 C          63.2436   83.3466   13.5260 C.ar    1  UNL1        0.0449
     14 C          62.4639   82.6288   14.5875 C.ar    1  UNL1        0.1293
     15 N          62.0472   83.3548   15.8322 N.pl3   1  UNL1       -0.3425
     16 N          62.1009   81.1849   14.4044 N.ar    1  UNL1       -0.1995
     17 C          62.5177   80.4588   13.1597 C.ar    1  UNL1        0.2145
     18 N          62.1547   79.0150   12.9765 N.pl3   1  UNL1       -0.3274
     19 N          63.2974   81.1767   12.0982 N.ar    1  UNL1       -0.2183
     20 C          63.6604   82.6205   12.2813 C.ar    1  UNL1        0.0645
     21 H          62.2854   84.3025   15.9524 H       1  UNL1        0.1437
     22 H          61.5354   82.8837   16.5289 H       1  UNL1        0.1437
     23 H          61.6429   78.5439   13.6732 H       1  UNL1        0.1452
     24 H          62.4282   78.5385   12.1596 H       1  UNL1        0.1452
     25 C          64.4401   83.3384   11.2198 C.3     1  UNL1        0.0460
     26 C          63.8657   83.4934    9.8429 C.3     1  UNL1        0.0067
     27 C          64.9914   91.0268   14.2088 C.ar    1  UNL1        0.0264
     28 C          66.3562   91.5323   13.8456 C.ar    1  UNL1        0.0293
     29 C          67.1062   92.4168   14.7971 C.ar    1  UNL1        0.1422
     30 F          68.4709   92.9223   14.4338 F       1  UNL1       -0.2041
     31 C          66.4913   92.7958   16.1117 C.ar    1  UNL1        0.0592
     32 C          65.1266   92.2904   16.4749 C.ar    1  UNL1        0.1422
     33 F          64.5117   92.6694   17.7896 F       1  UNL1       -0.2041
     34 C          64.3766   91.4059   15.5235 C.ar    1  UNL1        0.0293
     35 C          62.2440   87.8516   10.7054 C.3     1  UNL1        0.1010
     36 C          60.9880   87.0565   10.9065 C.3     1  UNL1        0.0539
     37 C          59.6603   87.7524   10.9600 C.3     1  UNL1        0.1439
     38 O          59.2378   88.4669   12.2094 O.3     1  UNL1       -0.3537
     39 C          59.4498   90.8793   11.2686 C.3     1  UNL1        0.0346
     40 C          59.5943   89.9107   12.4047 C.3     1  UNL1        0.1422
@<TRIPOS>BOND
     1    39    40    1
     2    40    38    1
     3    38    37    1
     4    37    36    1
     5    36    35    1
     6    35     1    1
     7     1     2   am
     8     2     3    2
     9     2     4    1
    10     4     5    1
    11     4    27    1
    12    27    28   ar
    13    28    29   ar
    14    29    30    1
    15    29    31   ar
    16    31    32   ar
    17    32    33    1
    18    32    34   ar
    19     4     6    1
    20     6     7    1
    21     7     8   ar
    22     8     9   ar
    23     9    10   ar
    24    10    13    1
    25    13    14   ar
    26    14    15    1
    27    14    16   ar
    28    16    17   ar
    29    17    18    1
    30    17    19   ar
    31    19    20   ar
    32    20    25    1
    33    25    26    1
    34    10    11   ar
    35    11    12   ar
    36    12     1    1
    37    34    27   ar
    38    12     7   ar
    39    20    13   ar
    40    15    21    1
    41    15    22    1
    42    18    23    1
    43    18    24    1
@<TRIPOS>MOLECULE
*****
 40 43 0 0 0
SMALL
GASTEIGER

@<TRIPOS>ATOM
      1 N          63.5055   87.3802   13.1822 N.am    1  UNL1       -0.2528
      2 C          62.5817   86.5551   12.3362 C.2     1  UNL1        0.2697
      3 O          62.2886   85.1331   12.7133 O.2     1  UNL1       -0.2704
      4 C          61.9511   87.1518   11.1130 C.3     1  UNL1        0.2199
      5 C          61.3688   85.7706   11.0588 C.3     1  UNL1        0.0579
      6 O          62.2442   88.5737   10.7359 O.3     1  UNL1       -0.4686
      7 C          63.1679   89.3990   11.5819 C.ar    1  UNL1        0.1529
      8 C          63.4610   90.8209   11.2048 C.ar    1  UNL1        0.0382
      9 C          64.3847   91.6460   12.0508 C.ar    1  UNL1        0.0033
     10 C          65.0153   91.0493   13.2740 C.ar    1  UNL1        0.0053
     11 C          64.7223   89.6274   13.6512 C.ar    1  UNL1        0.0181
     12 C          63.7986   88.8022   12.8051 C.ar    1  UNL1        0.0881
     13 C          65.9391   91.8745   14.1201 C.ar    1  UNL1        0.0449
     14 C          65.5625   92.2114   15.5324 C.ar    1  UNL1        0.1293
     15 N          64.2621   91.7232   16.0987 N.pl3   1  UNL1       -0.3425
     16 N          66.4862   93.0367   16.3784 N.ar    1  UNL1       -0.1995
     17 C          67.7866   93.5249   15.8121 C.ar    1  UNL1        0.2145
     18 N          68.7103   94.3501   16.6581 N.pl3   1  UNL1       -0.3274
     19 N          68.1632   93.1879   14.3998 N.ar    1  UNL1       -0.2183
     20 C          67.2395   92.3627   13.5538 C.ar    1  UNL1        0.0645
     21 H          63.6558   91.1816   15.5434 H       1  UNL1        0.1437
     22 H          64.0149   91.9444   17.0256 H       1  UNL1        0.1437
     23 H          68.4632   94.5713   17.5850 H       1  UNL1        0.1452
     24 H          69.5638   94.6705   16.2864 H       1  UNL1        0.1452
     25 C          67.6161   92.0257   12.1414 C.3     1  UNL1        0.0460
     26 C          67.2386   92.9517   11.0233 C.3     1  UNL1        0.0067
     27 C          61.1182   87.2689    9.8710 C.ar    1  UNL1        0.0264
     28 C          60.5506   88.5986    9.4712 C.ar    1  UNL1        0.0293
     29 C          59.7177   88.7156    8.2291 C.ar    1  UNL1        0.1422
     30 F          59.1501   90.0453    7.8293 F       1  UNL1       -0.2041
     31 C          59.4524   87.5030    7.3870 C.ar    1  UNL1        0.0592
     32 C          60.0200   86.1734    7.7869 C.ar    1  UNL1        0.1422
     33 F          59.7547   84.9608    6.9447 F       1  UNL1       -0.2041
     34 C          60.8529   86.0564    9.0288 C.ar    1  UNL1        0.0293
     35 C          64.1361   86.7835   14.4054 C.3     1  UNL1        0.1010
     36 C          64.6076   85.3596   14.3874 C.3     1  UNL1        0.0539
     37 C          64.2218   84.4277   15.4976 C.3     1  UNL1        0.1439
     38 O          63.6025   83.0989   15.1804 O.3     1  UNL1       -0.3537
     39 C          63.5576   81.0003   13.6493 C.3     1  UNL1        0.0346
     40 C          63.8402   82.4605   13.8440 C.3     1  UNL1        0.1422
@<TRIPOS>BOND
     1    39    40    1
     2    40    38    1
     3    38    37    1
     4    37    36    1
     5    36    35    1
     6    35     1    1
     7     1     2   am
     8     2     3    2
     9     2     4    1
    10     4     5    1
    11     4    27    1
    12    27    28   ar
    13    28    29   ar
    14    29    30    1
    15    29    31   ar
    16    31    32   ar
    17    32    33    1
    18    32    34   ar
    19     4     6    1
    20     6     7    1
    21     7     8   ar
    22     8     9   ar
    23     9    10   ar
    24    10    13    1
    25    13    14   ar
    26    14    15    1
    27    14    16   ar
    28    16    17   ar
    29    17    18    1
    30    17    19   ar
    31    19    20   ar
    32    20    25    1
    33    25    26    1
    34    10    11   ar
    35    11    12   ar
    36    12     1    1
    37    34    27   ar
    38    12     7   ar
    39    20    13   ar
    40    15    21    1
    41    15    22    1
    42    18    23    1
    43    18    24    1
@<TRIPOS>MOLECULE
*****
 40 43 0 0 0
SMALL
GASTEIGER

@<TRIPOS>ATOM
      1 N          62.4789   88.5433   11.5086 N.am    1  UNL1       -0.2528
      2 C          62.8056   90.0064   11.4581 C.2     1  UNL1        0.2697
      3 O          62.1065   90.8974   10.4745 O.2     1  UNL1       -0.2704
      4 C          63.8312   90.5785   12.3912 C.3     1  UNL1        0.2199
      5 C          63.4414   91.8177   11.6412 C.3     1  UNL1        0.0579
      6 O          64.5303   89.6876   13.3748 O.3     1  UNL1       -0.4686
      7 C          64.2036   88.2244   13.4254 C.ar    1  UNL1        0.1529
      8 C          64.9026   87.3334   14.4090 C.ar    1  UNL1        0.0382
      9 C          64.5760   85.8703   14.4595 C.ar    1  UNL1        0.0033
     10 C          63.5503   85.2982   13.5264 C.ar    1  UNL1        0.0053
     11 C          62.8513   86.1892   12.5428 C.ar    1  UNL1        0.0181
     12 C          63.1779   87.6522   12.4923 C.ar    1  UNL1        0.0881
     13 C          63.2237   83.8350   13.5769 C.ar    1  UNL1        0.0449
     14 C          63.8525   82.8918   12.5947 C.ar    1  UNL1        0.1293
     15 N          64.8080   83.4117   11.5618 N.pl3   1  UNL1       -0.3425
     16 N          63.5259   81.4286   12.6452 N.ar    1  UNL1       -0.1995
     17 C          62.5704   80.9087   13.6781 C.ar    1  UNL1        0.2145
     18 N          62.2437   79.4456   13.7287 N.pl3   1  UNL1       -0.3274
     19 N          61.9415   81.8520   14.6604 N.ar    1  UNL1       -0.2183
     20 C          62.2682   83.3151   14.6098 C.ar    1  UNL1        0.0645
     21 H          65.0224   84.3720   11.5286 H       1  UNL1        0.1437
     22 H          65.2207   82.7926   10.9171 H       1  UNL1        0.1437
     23 H          62.6564   78.8265   13.0840 H       1  UNL1        0.1452
     24 H          61.6166   79.1044   14.4066 H       1  UNL1        0.1452
     25 C          61.6393   84.2584   15.5921 C.3     1  UNL1        0.0460
     26 C          62.4860   84.9367   16.6280 C.3     1  UNL1        0.0067
     27 C          64.7215   91.5810   13.0638 C.ar    1  UNL1        0.0264
     28 C          65.2968   92.7208   12.2763 C.ar    1  UNL1        0.0293
     29 C          66.1871   93.7233   12.9490 C.ar    1  UNL1        0.1422
     30 F          66.7623   94.8629   12.1614 F       1  UNL1       -0.2041
     31 C          66.5021   93.5860   14.4090 C.ar    1  UNL1        0.0592
     32 C          65.9269   92.4463   15.1965 C.ar    1  UNL1        0.1422
     33 F          66.2420   92.3090   16.6566 F       1  UNL1       -0.2041
     34 C          65.0366   91.4438   14.5239 C.ar    1  UNL1        0.0293
     35 C          61.4532   87.9712   10.5756 C.3     1  UNL1        0.1010
     36 C          61.8814   87.0899    9.4396 C.3     1  UNL1        0.0539
     37 C          60.9216   86.0929    8.8610 C.3     1  UNL1        0.1439
     38 O          61.0166   85.7136    7.4129 O.3     1  UNL1       -0.3537
     39 C          62.1400   84.3143    5.5341 C.3     1  UNL1        0.0346
     40 C          62.1416   84.8425    6.9380 C.3     1  UNL1        0.1422
@<TRIPOS>BOND
     1    39    40    1
     2    40    38    1
     3    38    37    1
     4    37    36    1
     5    36    35    1
     6    35     1    1
     7     1     2   am
     8     2     3    2
     9     2     4    1
    10     4     5    1
    11     4    27    1
    12    27    28   ar
    13    28    29   ar
    14    29    30    1
    15    29    31   ar
    16    31    32   ar
    17    32    33    1
    18    32    34   ar
    19     4     6    1
    20     6     7    1
    21     7     8   ar
    22     8     9   ar
    23     9    10   ar
    24    10    13    1
    25    13    14   ar
    26    14    15    1
    27    14    16   ar
    28    16    17   ar
    29    17    18    1
    30    17    19   ar
    31    19    20   ar
    32    20    25    1
    33    25    26    1
    34    10    11   ar
    35    11    12   ar
    36    12     1    1
    37    34    27   ar
    38    12     7   ar
    39    20    13   ar
    40    15    21    1
    41    15    22    1
    42    18    23    1
    43    18    24    1
@<TRIPOS>MOLECULE
*****
 40 43 0 0 0
SMALL
GASTEIGER

@<TRIPOS>ATOM
      1 N          62.4581   88.4632   11.6243 N.am    1  UNL1       -0.2528
      2 C          62.7666   89.9299   11.5641 C.2     1  UNL1        0.2697
      3 O          62.0341   90.8113   10.5964 O.2     1  UNL1       -0.2704
      4 C          63.8077   90.5151   12.4717 C.3     1  UNL1        0.2199
      5 C          63.3858   91.7486   11.7296 C.3     1  UNL1        0.0579
      6 O          64.5402   89.6338   13.4394 O.3     1  UNL1       -0.4686
      7 C          64.2317   88.1670   13.4996 C.ar    1  UNL1        0.1529
      8 C          64.9643   87.2857   14.4673 C.ar    1  UNL1        0.0382
      9 C          64.6557   85.8190   14.5275 C.ar    1  UNL1        0.0033
     10 C          63.6147   85.2337   13.6199 C.ar    1  UNL1        0.0053
     11 C          62.8822   86.1151   12.6522 C.ar    1  UNL1        0.0181
     12 C          63.1907   87.5817   12.5920 C.ar    1  UNL1        0.0881
     13 C          63.3062   83.7669   13.6801 C.ar    1  UNL1        0.0449
     14 C          63.9986   82.8161   12.7494 C.ar    1  UNL1        0.1293
     15 N          64.9995   83.3319   11.7583 N.pl3   1  UNL1       -0.3425
     16 N          63.6901   81.3493   12.8096 N.ar    1  UNL1       -0.1995
     17 C          62.6892   80.8335   13.8006 C.ar    1  UNL1        0.2145
     18 N          62.3807   79.3669   13.8608 N.pl3   1  UNL1       -0.3274
     19 N          61.9968   81.7845   14.7314 N.ar    1  UNL1       -0.2183
     20 C          62.3053   83.2511   14.6711 C.ar    1  UNL1        0.0645
     21 H          65.2020   84.2945   11.7188 H       1  UNL1        0.1437
     22 H          65.4540   82.7078   11.1474 H       1  UNL1        0.1437
     23 H          62.8351   78.7428   13.2499 H       1  UNL1        0.1452
     24 H          61.7237   79.0283   14.5113 H       1  UNL1        0.1452
     25 C          61.6129   84.2021   15.6020 C.3     1  UNL1        0.0460
     26 C          62.4075   84.9733   16.6138 C.3     1  UNL1        0.0067
     27 C          64.7022   91.5288   13.1215 C.ar    1  UNL1        0.0264
     28 C          65.0108   91.4274   14.5860 C.ar    1  UNL1        0.0293
     29 C          65.9054   92.4411   15.2358 C.ar    1  UNL1        0.1422
     30 F          66.2140   92.3397   16.7002 F       1  UNL1       -0.2041
     31 C          66.4913   93.5561   14.4213 C.ar    1  UNL1        0.0592
     32 C          66.1827   93.6574   12.9568 C.ar    1  UNL1        0.1422
     33 F          66.7687   94.7724   12.1423 F       1  UNL1       -0.2041
     34 C          65.2882   92.6438   12.3070 C.ar    1  UNL1        0.0293
     35 C          61.4171   87.8779   10.7167 C.3     1  UNL1        0.1010
     36 C          61.7664   87.5319    9.2996 C.3     1  UNL1        0.0539
     37 C          60.8753   86.6208    8.5085 C.3     1  UNL1        0.1439
     38 O          61.4728   85.5331    7.6660 O.3     1  UNL1       -0.3537
     39 C          63.3364   84.4019    9.0793 C.3     1  UNL1        0.0346
     40 C          62.9106   85.1469    7.8490 C.3     1  UNL1        0.1422
@<TRIPOS>BOND
     1    39    40    1
     2    40    38    1
     3    38    37    1
     4    37    36    1
     5    36    35    1
     6    35     1    1
     7     1     2   am
     8     2     3    2
     9     2     4    1
    10     4     5    1
    11     4    27    1
    12    27    28   ar
    13    28    29   ar
    14    29    30    1
    15    29    31   ar
    16    31    32   ar
    17    32    33    1
    18    32    34   ar
    19     4     6    1
    20     6     7    1
    21     7     8   ar
    22     8     9   ar
    23     9    10   ar
    24    10    13    1
    25    13    14   ar
    26    14    15    1
    27    14    16   ar
    28    16    17   ar
    29    17    18    1
    30    17    19   ar
    31    19    20   ar
    32    20    25    1
    33    25    26    1
    34    10    11   ar
    35    11    12   ar
    36    12     1    1
    37    34    27   ar
    38    12     7   ar
    39    20    13   ar
    40    15    21    1
    41    15    22    1
    42    18    23    1
    43    18    24    1
