@<TRIPOS>MOLECULE
*****
 35 38 0 0 0
SMALL
GASTEIGER

@<TRIPOS>ATOM
      1 N          62.8282   89.8328   11.1663 N.am    1  UNL1       -0.2828
      2 C          62.7529   88.4418   11.7224 C.2     1  UNL1        0.2407
      3 O          63.6185   88.0502   12.8832 O.2     1  UNL1       -0.2733
      4 H          62.2601   90.0898   10.4044 H       1  UNL1        0.1549
      5 C          64.9151   91.8658   13.8611 C.ar    1  UNL1        0.0152
      6 C          63.9741   90.8664   13.2564 C.ar    1  UNL1        0.0158
      7 C          63.7693   90.8323   11.7709 C.ar    1  UNL1        0.0504
      8 C          64.5055   91.7976   10.8900 C.ar    1  UNL1        0.0147
      9 C          65.4465   92.7970   11.4946 C.ar    1  UNL1        0.0014
     10 C          65.6513   92.8311   12.9802 C.ar    1  UNL1        0.0012
     11 C          66.1828   93.7624   10.6137 C.ar    1  UNL1        0.0031
     12 C          67.2953   93.2758    9.7331 C.ar    1  UNL1        0.0207
     13 C          68.0316   94.2412    8.8521 C.ar    1  UNL1        0.0989
     14 N          67.6553   95.6932    8.8518 N.ar    1  UNL1       -0.2423
     15 C          66.5428   96.1798    9.7325 C.ar    1  UNL1        0.0989
     16 C          65.8065   95.2145   10.6134 C.ar    1  UNL1        0.0207
     17 O          63.9722   91.6129   16.2687 O.co2   1  UNL1       -0.5446
     18 C          65.1199   91.8998   15.3466 C.2     1  UNL1        0.0729
     19 O          66.4725   92.2208   15.9101 O.co2   1  UNL1       -0.5446
     20 C          61.8118   87.4423   11.1178 C.3     1  UNL1        0.1365
     21 N          61.4332   86.2096   11.8842 N.3     1  UNL1       -0.2860
     22 H          60.5671   85.8616   11.4728 H       1  UNL1        0.1240
     23 C          62.3790   85.0473   11.9500 C.3     1  UNL1        0.1160
     24 C          62.8295   84.5214   13.2805 C.ar    1  UNL1        0.0820
     25 C          64.1114   83.7912   13.5518 C.ar    1  UNL1        0.0530
     26 S          64.1515   83.4519   15.0124 S.2     1  UNL1       -0.0643
     27 C          62.8943   83.9725   15.6438 C.ar    1  UNL1        0.1341
     28 N          62.0774   84.6334   14.5734 N.ar    1  UNL1       -0.2392
     29 C          61.2495   87.6754    9.7469 C.3     1  UNL1        0.0514
     30 C          61.3992   86.6253    8.6863 C.ar    1  UNL1       -0.0203
     31 C          62.7164   85.9331    8.4970 C.ar    1  UNL1       -0.0042
     32 C          62.8661   84.8830    7.4364 C.ar    1  UNL1       -0.0003
     33 C          61.6987   84.5251    6.5652 C.ar    1  UNL1       -0.0000
     34 C          60.3815   85.2173    6.7546 C.ar    1  UNL1       -0.0003
     35 C          60.2318   86.2674    7.8151 C.ar    1  UNL1       -0.0042
@<TRIPOS>UNITY_ATOM_ATTR
17 1
charge -1
@<TRIPOS>BOND
     1    17    18   ar
     2    18    19   ar
     3    18     5    1
     4     5     6   ar
     5     6     7   ar
     6     7     1    1
     7     1     2   am
     8     2     3    2
     9     2    20    1
    10    20    29    1
    11    29    30    1
    12    30    31   ar
    13    31    32   ar
    14    32    33   ar
    15    33    34   ar
    16    34    35   ar
    17    20    21    1
    18    21    23    1
    19    23    24    1
    20    24    25   ar
    21    25    26   ar
    22    26    27   ar
    23    27    28   ar
    24     7     8   ar
    25     8     9   ar
    26     9    11    1
    27    11    12   ar
    28    12    13   ar
    29    13    14   ar
    30    14    15   ar
    31    15    16   ar
    32     9    10   ar
    33    10     5   ar
    34    35    30   ar
    35    28    24   ar
    36    16    11   ar
    37     1     4    1
    38    21    22    1
@<TRIPOS>MOLECULE
*****
 35 38 0 0 0
SMALL
GASTEIGER

@<TRIPOS>ATOM
      1 N          62.8814   90.0336   11.1006 N.am    1  UNL1       -0.2828
      2 C          63.5723   89.9941   12.4315 C.2     1  UNL1        0.2407
      3 O          63.6439   88.7088   13.2015 O.2     1  UNL1       -0.2733
      4 H          62.8345   90.8771   10.5952 H       1  UNL1        0.1549
      5 C          60.5105   87.6423    9.0004 C.ar    1  UNL1        0.0152
      6 C          61.1298   88.8881    9.5612 C.ar    1  UNL1        0.0158
      7 C          62.2621   88.7877   10.5399 C.ar    1  UNL1        0.0504
      8 C          62.7752   87.4416   10.9577 C.ar    1  UNL1        0.0147
      9 C          62.1559   86.1958   10.3970 C.ar    1  UNL1        0.0014
     10 C          61.0235   86.2962    9.4183 C.ar    1  UNL1        0.0012
     11 C          62.6689   84.8496   10.8148 C.ar    1  UNL1        0.0031
     12 C          62.4207   84.3517   12.2078 C.ar    1  UNL1        0.0207
     13 C          62.9338   83.0055   12.6257 C.ar    1  UNL1        0.0989
     14 N          63.6949   82.1572   11.6505 N.ar    1  UNL1       -0.2423
     15 C          63.9431   82.6551   10.2574 C.ar    1  UNL1        0.0989
     16 C          63.4301   84.0013    9.8396 C.ar    1  UNL1        0.0207
     17 O          58.3457   86.6567    7.9555 O.co2   1  UNL1       -0.5446
     18 C          59.3782   87.7427    8.0218 C.2     1  UNL1        0.0729
     19 O          59.2783   88.9291    7.1095 O.co2   1  UNL1       -0.5446
     20 C          64.1916   91.2399   12.9922 C.3     1  UNL1        0.1365
     21 N          64.3398   92.4578   12.1292 N.3     1  UNL1       -0.2860
     22 H          64.7479   93.1861   12.7152 H       1  UNL1        0.1240
     23 C          65.1656   92.3949   10.8786 C.3     1  UNL1        0.1160
     24 C          65.9743   93.5844   10.4533 C.ar    1  UNL1        0.0820
     25 C          65.7607   95.0007   10.8990 C.ar    1  UNL1        0.0530
     26 S          66.7929   95.8582   10.2287 S.2     1  UNL1       -0.0643
     27 C          67.6444   94.9719    9.3687 C.ar    1  UNL1        0.1341
     28 N          67.1384   93.5666    9.5076 N.ar    1  UNL1       -0.2392
     29 C          64.6627   91.2678   14.4161 C.3     1  UNL1        0.0514
     30 C          66.0292   91.7927   14.7437 C.ar    1  UNL1       -0.0203
     31 C          67.1714   91.5502   13.8022 C.ar    1  UNL1       -0.0042
     32 C          68.5378   92.0751   14.1298 C.ar    1  UNL1       -0.0003
     33 C          68.7620   92.8425   15.3990 C.ar    1  UNL1       -0.0000
     34 C          67.6197   93.0851   16.3405 C.ar    1  UNL1       -0.0003
     35 C          66.2533   92.5602   16.0129 C.ar    1  UNL1       -0.0042
@<TRIPOS>UNITY_ATOM_ATTR
17 1
charge -1
@<TRIPOS>BOND
     1    17    18   ar
     2    18    19   ar
     3    18     5    1
     4     5     6   ar
     5     6     7   ar
     6     7     1    1
     7     1     2   am
     8     2     3    2
     9     2    20    1
    10    20    29    1
    11    29    30    1
    12    30    31   ar
    13    31    32   ar
    14    32    33   ar
    15    33    34   ar
    16    34    35   ar
    17    20    21    1
    18    21    23    1
    19    23    24    1
    20    24    25   ar
    21    25    26   ar
    22    26    27   ar
    23    27    28   ar
    24     7     8   ar
    25     8     9   ar
    26     9    11    1
    27    11    12   ar
    28    12    13   ar
    29    13    14   ar
    30    14    15   ar
    31    15    16   ar
    32     9    10   ar
    33    10     5   ar
    34    35    30   ar
    35    28    24   ar
    36    16    11   ar
    37     1     4    1
    38    21    22    1
@<TRIPOS>MOLECULE
*****
 35 38 0 0 0
SMALL
GASTEIGER

@<TRIPOS>ATOM
      1 N          63.4093   89.5620   12.3241 N.am    1  UNL1       -0.2828
      2 C          63.7030   90.7789   11.4976 C.2     1  UNL1        0.2407
      3 O          63.3282   90.8076   10.0455 O.2     1  UNL1       -0.2733
      4 H          63.6553   89.5432   13.2772 H       1  UNL1        0.1549
      5 C          61.1107   87.3779    9.9375 C.ar    1  UNL1        0.0152
      6 C          61.7792   88.5659   10.5633 C.ar    1  UNL1        0.0158
      7 C          62.7408   88.3739   11.6983 C.ar    1  UNL1        0.0504
      8 C          63.0340   86.9938   12.2076 C.ar    1  UNL1        0.0147
      9 C          62.3655   85.8058   11.5819 C.ar    1  UNL1        0.0014
     10 C          61.4039   85.9978   10.4468 C.ar    1  UNL1        0.0012
     11 C          62.6587   84.4256   12.0912 C.ar    1  UNL1        0.0031
     12 C          62.6034   84.1419   13.5630 C.ar    1  UNL1        0.0207
     13 C          62.8965   82.7617   14.0723 C.ar    1  UNL1        0.0989
     14 N          63.2450   81.6654   13.1097 N.ar    1  UNL1       -0.2423
     15 C          63.3003   81.9492   11.6377 C.ar    1  UNL1        0.0989
     16 C          63.0071   83.3293   11.1285 C.ar    1  UNL1        0.0207
     17 O          59.7853   88.9541    8.3537 O.co2   1  UNL1       -0.5446
     18 C          60.1490   87.5699    8.8025 C.2     1  UNL1        0.0729
     19 O          59.5511   86.3776    8.1162 O.co2   1  UNL1       -0.5446
     20 C          64.3715   91.9670   12.1233 C.3     1  UNL1        0.1365
     21 N          64.6367   91.9873   13.5996 N.3     1  UNL1       -0.2860
     22 H          63.8083   91.6016   14.0529 H       1  UNL1        0.1240
     23 C          65.8184   91.2524   14.1595 C.3     1  UNL1        0.1160
     24 C          66.9951   92.0172   14.6890 C.ar    1  UNL1        0.0820
     25 C          67.0130   92.8597   15.9299 C.ar    1  UNL1        0.0530
     26 S          68.3895   93.4371   16.0784 S.2     1  UNL1       -0.0643
     27 C          69.2222   92.9513   14.9292 C.ar    1  UNL1        0.1341
     28 N          68.3605   92.0739   14.0705 N.ar    1  UNL1       -0.2392
     29 C          64.7748   93.1349   11.2728 C.3     1  UNL1        0.0514
     30 C          66.1037   93.1326   10.5770 C.ar    1  UNL1       -0.0203
     31 C          67.0519   91.9873   10.7751 C.ar    1  UNL1       -0.0042
     32 C          68.3808   91.9849   10.0794 C.ar    1  UNL1       -0.0003
     33 C          68.7615   93.1278    9.1856 C.ar    1  UNL1       -0.0000
     34 C          67.8132   94.2731    8.9876 C.ar    1  UNL1       -0.0003
     35 C          66.4844   94.2755    9.6833 C.ar    1  UNL1       -0.0042
@<TRIPOS>UNITY_ATOM_ATTR
17 1
charge -1
@<TRIPOS>BOND
     1    17    18   ar
     2    18    19   ar
     3    18     5    1
     4     5     6   ar
     5     6     7   ar
     6     7     1    1
     7     1     2   am
     8     2     3    2
     9     2    20    1
    10    20    29    1
    11    29    30    1
    12    30    31   ar
    13    31    32   ar
    14    32    33   ar
    15    33    34   ar
    16    34    35   ar
    17    20    21    1
    18    21    23    1
    19    23    24    1
    20    24    25   ar
    21    25    26   ar
    22    26    27   ar
    23    27    28   ar
    24     7     8   ar
    25     8     9   ar
    26     9    11    1
    27    11    12   ar
    28    12    13   ar
    29    13    14   ar
    30    14    15   ar
    31    15    16   ar
    32     9    10   ar
    33    10     5   ar
    34    35    30   ar
    35    28    24   ar
    36    16    11   ar
    37     1     4    1
    38    21    22    1
@<TRIPOS>MOLECULE
*****
 35 38 0 0 0
SMALL
GASTEIGER

@<TRIPOS>ATOM
      1 N          63.1765   89.6274   12.1083 N.am    1  UNL1       -0.2828
      2 C          63.6447   90.7971   11.2942 C.2     1  UNL1        0.2407
      3 O          63.4898   90.7825    9.8023 O.2     1  UNL1       -0.2733
      4 H          63.2782   89.6369   13.0875 H       1  UNL1        0.1549
      5 C          60.9210   87.4642    9.6622 C.ar    1  UNL1        0.0152
      6 C          61.5441   88.6484   10.3400 C.ar    1  UNL1        0.0158
      7 C          62.5535   88.4431   11.4304 C.ar    1  UNL1        0.0504
      8 C          62.9399   87.0537   11.8429 C.ar    1  UNL1        0.0147
      9 C          62.3169   85.8696   11.1650 C.ar    1  UNL1        0.0014
     10 C          61.3075   86.0748   10.0746 C.ar    1  UNL1        0.0012
     11 C          62.7033   84.4801   11.5775 C.ar    1  UNL1        0.0031
     12 C          62.5742   84.0603   13.0117 C.ar    1  UNL1        0.0207
     13 C          62.9607   82.6708   13.4242 C.ar    1  UNL1        0.0989
     14 N          63.4762   81.7012   12.4023 N.ar    1  UNL1       -0.2423
     15 C          63.6053   82.1210   10.9681 C.ar    1  UNL1        0.0989
     16 C          63.2188   83.5105   10.5557 C.ar    1  UNL1        0.0207
     17 O          59.5947   89.0557    8.0944 O.co2   1  UNL1       -0.5446
     18 C          59.9116   87.6695    8.5718 C.2     1  UNL1        0.0729
     19 O          59.2191   86.4885    7.9589 O.co2   1  UNL1       -0.5446
     20 C          64.2677   91.9813   11.9720 C.3     1  UNL1        0.1365
     21 N          64.4066   92.0034   13.4655 N.3     1  UNL1       -0.2860
     22 H          63.4619   91.9842   13.8494 H       1  UNL1        0.1240
     23 C          65.1795   90.9234   14.1629 C.3     1  UNL1        0.1160
     24 C          64.4584   89.8970   14.9853 C.ar    1  UNL1        0.0820
     25 C          63.5806   90.1741   16.1697 C.ar    1  UNL1        0.0530
     26 S          63.0683   88.8616   16.6842 S.2     1  UNL1       -0.0643
     27 C          63.6295   87.7732   15.8178 C.ar    1  UNL1        0.1341
     28 N          64.4887   88.4132   14.7679 N.ar    1  UNL1       -0.2392
     29 C          64.7518   93.1434   11.1565 C.3     1  UNL1        0.0514
     30 C          66.1255   93.1169   10.5546 C.ar    1  UNL1       -0.0203
     31 C          67.0497   91.9716   10.8453 C.ar    1  UNL1       -0.0042
     32 C          68.4233   91.9451   10.2435 C.ar    1  UNL1       -0.0003
     33 C          68.8729   93.0637    9.3510 C.ar    1  UNL1       -0.0000
     34 C          67.9488   94.2089    9.0604 C.ar    1  UNL1       -0.0003
     35 C          66.5751   94.2355    9.6622 C.ar    1  UNL1       -0.0042
@<TRIPOS>UNITY_ATOM_ATTR
17 1
charge -1
@<TRIPOS>BOND
     1    17    18   ar
     2    18    19   ar
     3    18     5    1
     4     5     6   ar
     5     6     7   ar
     6     7     1    1
     7     1     2   am
     8     2     3    2
     9     2    20    1
    10    20    29    1
    11    29    30    1
    12    30    31   ar
    13    31    32   ar
    14    32    33   ar
    15    33    34   ar
    16    34    35   ar
    17    20    21    1
    18    21    23    1
    19    23    24    1
    20    24    25   ar
    21    25    26   ar
    22    26    27   ar
    23    27    28   ar
    24     7     8   ar
    25     8     9   ar
    26     9    11    1
    27    11    12   ar
    28    12    13   ar
    29    13    14   ar
    30    14    15   ar
    31    15    16   ar
    32     9    10   ar
    33    10     5   ar
    34    35    30   ar
    35    28    24   ar
    36    16    11   ar
    37     1     4    1
    38    21    22    1
@<TRIPOS>MOLECULE
*****
 35 38 0 0 0
SMALL
GASTEIGER

@<TRIPOS>ATOM
      1 N          62.6679   89.2027   12.6104 N.am    1  UNL1       -0.2828
      2 C          63.5247   90.3317   12.1193 C.2     1  UNL1        0.2407
      3 O          63.8962   90.4150   10.6684 O.2     1  UNL1       -0.2733
      4 H          62.4240   89.1480   13.5626 H       1  UNL1        0.1549
      5 C          60.7165   87.4768    9.6165 C.ar    1  UNL1        0.0152
      6 C          61.2017   88.5224   10.5763 C.ar    1  UNL1        0.0158
      7 C          62.1827   88.1570   11.6506 C.ar    1  UNL1        0.0504
      8 C          62.6784   86.7459   11.7652 C.ar    1  UNL1        0.0147
      9 C          62.1932   85.7003   10.8054 C.ar    1  UNL1        0.0014
     10 C          61.2123   86.0657    9.7311 C.ar    1  UNL1        0.0012
     11 C          62.6890   84.2892   10.9200 C.ar    1  UNL1        0.0031
     12 C          62.2377   83.4260   12.0607 C.ar    1  UNL1        0.0207
     13 C          62.7335   82.0149   12.1752 C.ar    1  UNL1        0.0989
     14 N          63.6804   81.4670   11.1490 N.ar    1  UNL1       -0.2423
     15 C          64.1317   82.3303   10.0083 C.ar    1  UNL1        0.0989
     16 C          63.6359   83.7413    9.8938 C.ar    1  UNL1        0.0207
     17 O          59.8167   89.1843    7.8774 O.co2   1  UNL1       -0.5446
     18 C          59.7356   87.8422    8.5422 C.2     1  UNL1        0.0729
     19 O          58.6735   86.8654    8.1326 O.co2   1  UNL1       -0.5446
     20 C          64.0099   91.3774   13.0790 C.3     1  UNL1        0.1365
     21 N          64.6245   92.6438   12.5607 N.3     1  UNL1       -0.2860
     22 H          64.5290   93.3411   13.2990 H       1  UNL1        0.1240
     23 C          66.0623   92.6595   12.1335 C.3     1  UNL1        0.1160
     24 C          66.5165   93.6080   11.0639 C.ar    1  UNL1        0.0820
     25 C          65.9045   94.9408   10.7494 C.ar    1  UNL1        0.0530
     26 S          66.6723   95.5467    9.6121 S.2     1  UNL1       -0.0643
     27 C          67.7588   94.5882    9.2237 C.ar    1  UNL1        0.1341
     28 N          67.6625   93.3900   10.1210 N.ar    1  UNL1       -0.2392
     29 C          63.8805   91.1568   14.5570 C.3     1  UNL1        0.0514
     30 C          63.8295   89.7615   15.1054 C.ar    1  UNL1       -0.0203
     31 C          64.5891   88.6606   14.4265 C.ar    1  UNL1       -0.0042
     32 C          64.5381   87.2654   14.9748 C.ar    1  UNL1       -0.0003
     33 C          63.7276   86.9711   16.2022 C.ar    1  UNL1       -0.0000
     34 C          62.9679   88.0720   16.8811 C.ar    1  UNL1       -0.0003
     35 C          63.0189   89.4672   16.3327 C.ar    1  UNL1       -0.0042
@<TRIPOS>UNITY_ATOM_ATTR
17 1
charge -1
@<TRIPOS>BOND
     1    17    18   ar
     2    18    19   ar
     3    18     5    1
     4     5     6   ar
     5     6     7   ar
     6     7     1    1
     7     1     2   am
     8     2     3    2
     9     2    20    1
    10    20    29    1
    11    29    30    1
    12    30    31   ar
    13    31    32   ar
    14    32    33   ar
    15    33    34   ar
    16    34    35   ar
    17    20    21    1
    18    21    23    1
    19    23    24    1
    20    24    25   ar
    21    25    26   ar
    22    26    27   ar
    23    27    28   ar
    24     7     8   ar
    25     8     9   ar
    26     9    11    1
    27    11    12   ar
    28    12    13   ar
    29    13    14   ar
    30    14    15   ar
    31    15    16   ar
    32     9    10   ar
    33    10     5   ar
    34    35    30   ar
    35    28    24   ar
    36    16    11   ar
    37     1     4    1
    38    21    22    1
@<TRIPOS>MOLECULE
*****
 35 38 0 0 0
SMALL
GASTEIGER

@<TRIPOS>ATOM
      1 N          62.1286   89.4674   12.1065 N.am    1  UNL1       -0.2828
      2 C          63.3298   89.3565   12.9980 C.2     1  UNL1        0.2407
      3 O          64.1799   88.1211   12.9609 O.2     1  UNL1       -0.2733
      4 H          61.5707   90.2782   12.1308 H       1  UNL1        0.1549
      5 C          60.4805   87.4550    9.1091 C.ar    1  UNL1        0.0152
      6 C          60.8316   88.5794   10.0378 C.ar    1  UNL1        0.0158
      7 C          61.7775   88.3430   11.1778 C.ar    1  UNL1        0.0504
      8 C          62.3723   86.9823   11.3890 C.ar    1  UNL1        0.0147
      9 C          62.0212   85.8580   10.4603 C.ar    1  UNL1        0.0014
     10 C          61.0753   86.0943    9.3204 C.ar    1  UNL1        0.0012
     11 C          62.6160   84.4972   10.6715 C.ar    1  UNL1        0.0031
     12 C          63.5651   83.9281    9.6590 C.ar    1  UNL1        0.0207
     13 C          64.1599   82.5673    9.8702 C.ar    1  UNL1        0.0989
     14 N          63.8055   81.7756   11.0940 N.ar    1  UNL1       -0.2423
     15 C          62.8563   82.3447   12.1065 C.ar    1  UNL1        0.0989
     16 C          62.2616   83.7055   11.8953 C.ar    1  UNL1        0.0207
     17 O          58.6466   86.5820    7.4892 O.co2   1  UNL1       -0.5446
     18 C          59.5346   87.6914    7.9692 C.2     1  UNL1        0.0729
     19 O          59.4768   89.0372    7.3093 O.co2   1  UNL1       -0.5446
     20 C          63.6809   90.4809   13.9267 C.3     1  UNL1        0.1365
     21 N          63.9333   91.8546   13.3796 N.3     1  UNL1       -0.2860
     22 H          63.7107   92.5140   14.1252 H       1  UNL1        0.1240
     23 C          65.2960   92.2205   12.8705 C.3     1  UNL1        0.1160
     24 C          66.4262   92.4270   13.8347 C.ar    1  UNL1        0.0820
     25 C          66.3013   92.9105   15.2492 C.ar    1  UNL1        0.0530
     26 S          67.6778   92.9686   15.8425 S.2     1  UNL1       -0.0643
     27 C          68.6534   92.5209   14.7946 C.ar    1  UNL1        0.1341
     28 N          67.8799   92.1862   13.5538 N.ar    1  UNL1       -0.2392
     29 C          63.7797   90.2316   15.4026 C.3     1  UNL1        0.0514
     30 C          63.6103   88.8420   15.9415 C.ar    1  UNL1       -0.0203
     31 C          62.7736   88.6086   17.1643 C.ar    1  UNL1       -0.0042
     32 C          62.6042   87.2191   17.7033 C.ar    1  UNL1       -0.0003
     33 C          63.2715   86.0629   17.0193 C.ar    1  UNL1       -0.0000
     34 C          64.1082   86.2963   15.7964 C.ar    1  UNL1       -0.0003
     35 C          64.2776   87.6858   15.2575 C.ar    1  UNL1       -0.0042
@<TRIPOS>UNITY_ATOM_ATTR
17 1
charge -1
@<TRIPOS>BOND
     1    17    18   ar
     2    18    19   ar
     3    18     5    1
     4     5     6   ar
     5     6     7   ar
     6     7     1    1
     7     1     2   am
     8     2     3    2
     9     2    20    1
    10    20    29    1
    11    29    30    1
    12    30    31   ar
    13    31    32   ar
    14    32    33   ar
    15    33    34   ar
    16    34    35   ar
    17    20    21    1
    18    21    23    1
    19    23    24    1
    20    24    25   ar
    21    25    26   ar
    22    26    27   ar
    23    27    28   ar
    24     7     8   ar
    25     8     9   ar
    26     9    11    1
    27    11    12   ar
    28    12    13   ar
    29    13    14   ar
    30    14    15   ar
    31    15    16   ar
    32     9    10   ar
    33    10     5   ar
    34    35    30   ar
    35    28    24   ar
    36    16    11   ar
    37     1     4    1
    38    21    22    1
@<TRIPOS>MOLECULE
*****
 35 38 0 0 0
SMALL
GASTEIGER

@<TRIPOS>ATOM
      1 N          62.9130   87.9139   12.6004 N.am    1  UNL1       -0.2828
      2 C          62.9644   89.2667   11.9544 C.2     1  UNL1        0.2407
      3 O          62.7637   89.3989   10.4737 O.2     1  UNL1       -0.2733
      4 H          63.0448   87.8272   13.5722 H       1  UNL1        0.1549
      5 C          62.0671   85.6157    9.4775 C.ar    1  UNL1        0.0152
      6 C          62.3192   86.8362   10.3122 C.ar    1  UNL1        0.0158
      7 C          62.6609   86.6933   11.7657 C.ar    1  UNL1        0.0504
      8 C          62.7505   85.3299   12.3846 C.ar    1  UNL1        0.0147
      9 C          62.4984   84.1094   11.5500 C.ar    1  UNL1        0.0014
     10 C          62.1567   84.2523   10.0964 C.ar    1  UNL1        0.0012
     11 C          62.5879   82.7459   12.1688 C.ar    1  UNL1        0.0031
     12 C          62.3847   82.5777   13.6454 C.ar    1  UNL1        0.0207
     13 C          62.4742   81.2142   14.2643 C.ar    1  UNL1        0.0989
     14 N          62.7671   80.0190   13.4065 N.ar    1  UNL1       -0.2423
     15 C          62.9703   80.1873   11.9299 C.ar    1  UNL1        0.0989
     16 C          62.8807   81.5507   11.3111 C.ar    1  UNL1        0.0207
     17 O          60.6037   86.6608    7.6023 O.co2   1  UNL1       -0.5446
     18 C          61.7254   85.7586    8.0239 C.2     1  UNL1        0.0729
     19 O          62.5054   84.9992    6.9920 O.co2   1  UNL1       -0.5446
     20 C          63.2165   90.4873   12.7890 C.3     1  UNL1        0.1365
     21 N          62.9688   90.4489   14.2680 N.3     1  UNL1       -0.2860
     22 H          62.0928   89.9453   14.4068 H       1  UNL1        0.1240
     23 C          63.9791   89.8206   15.1815 C.3     1  UNL1        0.1160
     24 C          63.7188   88.4649   15.7682 C.ar    1  UNL1        0.0820
     25 C          64.2646   87.1640   15.2585 C.ar    1  UNL1        0.0530
     26 S          63.7502   86.0671   16.1429 S.2     1  UNL1       -0.0643
     27 C          62.8865   86.6902   17.1993 C.ar    1  UNL1        0.1341
     28 N          62.8671   88.1720   16.9677 N.ar    1  UNL1       -0.2392
     29 C          63.7163   91.7463   12.1447 C.3     1  UNL1        0.0514
     30 C          65.1889   91.9562   11.9510 C.ar    1  UNL1       -0.0203
     31 C          66.1251   91.8220   13.1152 C.ar    1  UNL1       -0.0042
     32 C          67.5977   92.0319   12.9216 C.ar    1  UNL1       -0.0003
     33 C          68.1340   92.3759   11.5637 C.ar    1  UNL1       -0.0000
     34 C          67.1978   92.5100   10.3994 C.ar    1  UNL1       -0.0003
     35 C          65.7252   92.3002   10.5931 C.ar    1  UNL1       -0.0042
@<TRIPOS>UNITY_ATOM_ATTR
17 1
charge -1
@<TRIPOS>BOND
     1    17    18   ar
     2    18    19   ar
     3    18     5    1
     4     5     6   ar
     5     6     7   ar
     6     7     1    1
     7     1     2   am
     8     2     3    2
     9     2    20    1
    10    20    29    1
    11    29    30    1
    12    30    31   ar
    13    31    32   ar
    14    32    33   ar
    15    33    34   ar
    16    34    35   ar
    17    20    21    1
    18    21    23    1
    19    23    24    1
    20    24    25   ar
    21    25    26   ar
    22    26    27   ar
    23    27    28   ar
    24     7     8   ar
    25     8     9   ar
    26     9    11    1
    27    11    12   ar
    28    12    13   ar
    29    13    14   ar
    30    14    15   ar
    31    15    16   ar
    32     9    10   ar
    33    10     5   ar
    34    35    30   ar
    35    28    24   ar
    36    16    11   ar
    37     1     4    1
    38    21    22    1
@<TRIPOS>MOLECULE
*****
 35 38 0 0 0
SMALL
GASTEIGER

@<TRIPOS>ATOM
      1 N          63.0667   90.7894   12.1098 N.am    1  UNL1       -0.2828
      2 C          63.8544   90.6321   13.3766 C.2     1  UNL1        0.2407
      3 O          63.5597   89.4923   14.3063 O.2     1  UNL1       -0.2733
      4 H          63.2600   91.5375   11.4996 H       1  UNL1        0.1549
      5 C          59.6217   88.8221   12.2168 C.ar    1  UNL1        0.0152
      6 C          60.7039   89.8044   12.5539 C.ar    1  UNL1        0.0158
      7 C          61.9844   89.8070   11.7727 C.ar    1  UNL1        0.0504
      8 C          62.1827   88.8272   10.6543 C.ar    1  UNL1        0.0147
      9 C          61.1005   87.8449   10.3173 C.ar    1  UNL1        0.0014
     10 C          59.8199   87.8423   11.0985 C.ar    1  UNL1        0.0012
     11 C          61.2987   86.8650    9.1989 C.ar    1  UNL1        0.0031
     12 C          60.1695   86.5602    8.2598 C.ar    1  UNL1        0.0207
     13 C          60.3677   85.5804    7.1414 C.ar    1  UNL1        0.0989
     14 N          61.6952   84.9053    6.9622 N.ar    1  UNL1       -0.2423
     15 C          62.8244   85.2101    7.9014 C.ar    1  UNL1        0.0989
     16 C          62.6262   86.1899    9.0197 C.ar    1  UNL1        0.0207
     17 O          58.3278   88.3264   14.4145 O.co2   1  UNL1       -0.5446
     18 C          58.3412   88.8195   12.9980 C.2     1  UNL1        0.0729
     19 O          57.0740   89.3100   12.3627 O.co2   1  UNL1       -0.5446
     20 C          64.9366   91.6145   13.7138 C.3     1  UNL1        0.1365
     21 N          65.1959   92.7839   12.8109 N.3     1  UNL1       -0.2860
     22 H          65.7590   93.4475   13.3428 H       1  UNL1        0.1240
     23 C          65.8934   92.5783   11.4989 C.3     1  UNL1        0.1160
     24 C          66.4109   93.7587   10.7316 C.ar    1  UNL1        0.0820
     25 C          67.2878   93.7043    9.5158 C.ar    1  UNL1        0.0530
     26 S          67.5613   95.1127    9.0781 S.2     1  UNL1       -0.0643
     27 C          66.8534   96.0375   10.0235 C.ar    1  UNL1        0.1341
     28 N          66.1424   95.2007   11.0453 N.ar    1  UNL1       -0.2392
     29 C          65.7595   91.4275   14.9539 C.3     1  UNL1        0.0514
     30 C          67.0939   92.1014   15.0772 C.ar    1  UNL1       -0.0203
     31 C          67.3067   93.1586   16.1198 C.ar    1  UNL1       -0.0042
     32 C          68.6410   93.8326   16.2432 C.ar    1  UNL1       -0.0003
     33 C          69.7626   93.4494   15.3238 C.ar    1  UNL1       -0.0000
     34 C          69.5498   92.3922   14.2812 C.ar    1  UNL1       -0.0003
     35 C          68.2155   91.7182   14.1579 C.ar    1  UNL1       -0.0042
@<TRIPOS>UNITY_ATOM_ATTR
17 1
charge -1
@<TRIPOS>BOND
     1    17    18   ar
     2    18    19   ar
     3    18     5    1
     4     5     6   ar
     5     6     7   ar
     6     7     1    1
     7     1     2   am
     8     2     3    2
     9     2    20    1
    10    20    29    1
    11    29    30    1
    12    30    31   ar
    13    31    32   ar
    14    32    33   ar
    15    33    34   ar
    16    34    35   ar
    17    20    21    1
    18    21    23    1
    19    23    24    1
    20    24    25   ar
    21    25    26   ar
    22    26    27   ar
    23    27    28   ar
    24     7     8   ar
    25     8     9   ar
    26     9    11    1
    27    11    12   ar
    28    12    13   ar
    29    13    14   ar
    30    14    15   ar
    31    15    16   ar
    32     9    10   ar
    33    10     5   ar
    34    35    30   ar
    35    28    24   ar
    36    16    11   ar
    37     1     4    1
    38    21    22    1
@<TRIPOS>MOLECULE
*****
 35 38 0 0 0
SMALL
GASTEIGER

@<TRIPOS>ATOM
      1 N          64.2395   88.7388   13.0712 N.am    1  UNL1       -0.2828
      2 C          63.6909   90.1163   13.2985 C.2     1  UNL1        0.2407
      3 O          62.7849   90.3798   14.4646 O.2     1  UNL1       -0.2733
      4 H          64.8341   88.5658   12.3059 H       1  UNL1        0.1549
      5 C          63.2294   86.8095   16.3890 C.ar    1  UNL1        0.0152
      6 C          63.5869   87.9234   15.4501 C.ar    1  UNL1        0.0158
      7 C          63.8820   87.6249   14.0101 C.ar    1  UNL1        0.0504
      8 C          63.8197   86.2125   13.5088 C.ar    1  UNL1        0.0147
      9 C          63.4623   85.0986   14.4477 C.ar    1  UNL1        0.0014
     10 C          63.1671   85.3971   15.8878 C.ar    1  UNL1        0.0012
     11 C          63.3999   83.6861   13.9465 C.ar    1  UNL1        0.0031
     12 C          64.3095   83.2423   12.8394 C.ar    1  UNL1        0.0207
     13 C          64.2472   81.8299   12.3382 C.ar    1  UNL1        0.0989
     14 N          63.2752   80.8613   12.9441 N.ar    1  UNL1       -0.2423
     15 C          62.3656   81.3052   14.0513 C.ar    1  UNL1        0.0989
     16 C          62.4280   82.7176   14.5524 C.ar    1  UNL1        0.0207
     17 O          63.1945   88.4789   18.3794 O.co2   1  UNL1       -0.5446
     18 C          62.9343   87.1080   17.8290 C.2     1  UNL1        0.0729
     19 O          62.3790   86.0356   18.7187 O.co2   1  UNL1       -0.5446
     20 C          64.0484   91.2302   12.3597 C.3     1  UNL1        0.1365
     21 N          64.9723   92.3229   12.8096 N.3     1  UNL1       -0.2860
     22 H          65.0279   92.2616   13.8263 H       1  UNL1        0.1240
     23 C          66.3826   92.3694   12.3010 C.3     1  UNL1        0.1160
     24 C          66.7419   93.2863   11.1695 C.ar    1  UNL1        0.0820
     25 C          66.0272   94.5521   10.7994 C.ar    1  UNL1        0.0530
     26 S          66.7226   95.1465    9.6106 S.2     1  UNL1       -0.0643
     27 C          67.8671   94.2479    9.2461 C.ar    1  UNL1        0.1341
     28 N          67.8790   93.0983   10.2095 N.ar    1  UNL1       -0.2392
     29 C          63.4819   91.2515   10.9709 C.3     1  UNL1        0.0514
     30 C          62.3580   90.3278   10.6051 C.ar    1  UNL1       -0.0203
     31 C          60.9416   90.7091   10.9188 C.ar    1  UNL1       -0.0042
     32 C          59.8177   89.7855   10.5530 C.ar    1  UNL1       -0.0003
     33 C          60.1103   88.4806    9.8736 C.ar    1  UNL1       -0.0000
     34 C          61.5267   88.0994    9.5600 C.ar    1  UNL1       -0.0003
     35 C          62.6505   89.0230    9.9257 C.ar    1  UNL1       -0.0042
@<TRIPOS>UNITY_ATOM_ATTR
17 1
charge -1
@<TRIPOS>BOND
     1    17    18   ar
     2    18    19   ar
     3    18     5    1
     4     5     6   ar
     5     6     7   ar
     6     7     1    1
     7     1     2   am
     8     2     3    2
     9     2    20    1
    10    20    29    1
    11    29    30    1
    12    30    31   ar
    13    31    32   ar
    14    32    33   ar
    15    33    34   ar
    16    34    35   ar
    17    20    21    1
    18    21    23    1
    19    23    24    1
    20    24    25   ar
    21    25    26   ar
    22    26    27   ar
    23    27    28   ar
    24     7     8   ar
    25     8     9   ar
    26     9    11    1
    27    11    12   ar
    28    12    13   ar
    29    13    14   ar
    30    14    15   ar
    31    15    16   ar
    32     9    10   ar
    33    10     5   ar
    34    35    30   ar
    35    28    24   ar
    36    16    11   ar
    37     1     4    1
    38    21    22    1
