@<TRIPOS>MOLECULE
*****
 26 29 0 0 0
SMALL
GASTEIGER

@<TRIPOS>ATOM
      1 C          62.1727   88.9431   11.2935 C.ar    1  UNL1        0.1385
      2 C          62.2589   89.8115   10.0734 C.ar    1  UNL1        0.0384
      3 C          63.1372   91.0274   10.0789 C.ar    1  UNL1        0.0203
      4 C          63.9294   91.3749   11.3043 C.ar    1  UNL1        0.0602
      5 C          63.8432   90.5066   12.5243 C.ar    1  UNL1        0.0204
      6 C          62.9649   89.2907   12.5189 C.ar    1  UNL1        0.0384
      7 C          64.7339   91.0967   13.5771 C.ar    1  UNL1        0.0233
      8 C          65.3705   92.3299   13.0078 C.ar    1  UNL1        0.1140
      9 N          64.8733   92.5018   11.6031 N.ar    1  UNL1       -0.3219
     10 C          65.3443   93.6622   10.7776 C.3     1  UNL1        0.1256
     11 C          66.3125   94.6507   11.3567 C.3     1  UNL1        0.0945
     12 C          66.7835   95.8112   10.5312 C.3     1  UNL1        0.0233
     13 N          66.8097   94.4788   12.7614 N.am    1  UNL1       -0.2994
     14 C          66.3387   93.3183   13.5870 C.2     1  UNL1        0.2618
     15 O          66.8359   93.1463   14.9917 O.2     1  UNL1       -0.2686
     16 H          67.4452   95.1276   13.1416 H       1  UNL1        0.1498
     17 O          61.2944   87.7272   11.2881 O.3     1  UNL1       -0.4791
     18 N          63.1338   83.6222   11.4116 N.3     1  UNL1       -0.2737
     19 C          62.9411   84.3184   10.0970 C.3     1  UNL1        0.0758
     20 C          62.3279   85.6868   10.0558 C.3     1  UNL1        0.0609
     21 C          61.9075   86.3589   11.3292 C.3     1  UNL1        0.1687
     22 C          62.1003   85.6626   12.6438 C.3     1  UNL1        0.0609
     23 C          62.7134   84.2943   12.6850 C.3     1  UNL1        0.0758
     24 C          64.5951   81.8469   12.6211 C.3     1  UNL1        0.0173
     25 C          63.7470   82.2539   11.4527 C.3     1  UNL1        0.0576
     26 C          63.5120   81.2925   10.3255 C.3     1  UNL1        0.0173
@<TRIPOS>BOND
     1    24    25    1
     2    25    26    1
     3    25    18    1
     4    18    19    1
     5    19    20    1
     6    20    21    1
     7    21    17    1
     8    17     1    1
     9     1     2   ar
    10     2     3   ar
    11     3     4   ar
    12     4     5   ar
    13     5     6   ar
    14     5     7   ar
    15     7     8   ar
    16     8     9   ar
    17     9    10    1
    18    10    11    1
    19    11    12    1
    20    11    13    1
    21    13    14   am
    22    14    15    2
    23    21    22    1
    24    22    23    1
    25    23    18    1
    26     6     1   ar
    27    14     8    1
    28     9     4   ar
    29    13    16    1
@<TRIPOS>MOLECULE
*****
 26 29 0 0 0
SMALL
GASTEIGER

@<TRIPOS>ATOM
      1 C          62.2592   88.0120   10.8872 C.ar    1  UNL1        0.1385
      2 C          61.7499   86.9509    9.9573 C.ar    1  UNL1        0.0384
      3 C          61.8840   85.5032   10.3261 C.ar    1  UNL1        0.0203
      4 C          62.5274   85.1165   11.6248 C.ar    1  UNL1        0.0602
      5 C          63.0367   86.1776   12.5547 C.ar    1  UNL1        0.0204
      6 C          62.9026   87.6253   12.1859 C.ar    1  UNL1        0.0384
      7 C          63.6209   85.4982   13.7576 C.ar    1  UNL1        0.0233
      8 C          63.4728   84.0172   13.5712 C.ar    1  UNL1        0.1140
      9 N          62.7969   83.7813   12.2530 N.ar    1  UNL1       -0.3219
     10 C          62.5142   82.3812   11.7951 C.3     1  UNL1        0.1256
     11 C          62.9074   81.2170   12.6553 C.3     1  UNL1        0.0945
     12 C          62.6247   79.8168   12.1974 C.3     1  UNL1        0.0233
     13 N          63.5832   81.4529   13.9735 N.am    1  UNL1       -0.2994
     14 C          63.8659   82.8531   14.4314 C.2     1  UNL1        0.2618
     15 O          64.5418   83.0890   15.7496 O.2     1  UNL1       -0.2686
     16 H          63.8413   80.6888   14.5381 H       1  UNL1        0.1498
     17 O          62.1251   89.4598   10.5184 O.3     1  UNL1       -0.4791
     18 N          65.0650   92.4697   12.1144 N.3     1  UNL1       -0.2737
     19 C          64.7110   92.4671   10.6568 C.3     1  UNL1        0.0758
     20 C          63.7311   91.4638   10.1247 C.3     1  UNL1        0.0609
     21 C          63.1051   90.4631   11.0504 C.3     1  UNL1        0.1687
     22 C          63.4591   90.4658   12.5081 C.3     1  UNL1        0.0609
     23 C          64.4390   91.4691   13.0400 C.3     1  UNL1        0.0758
     24 C          66.3314   94.7252   11.8718 C.3     1  UNL1        0.0173
     25 C          66.0449   93.4730   12.6464 C.3     1  UNL1        0.0576
     26 C          66.7385   93.2242   13.9530 C.3     1  UNL1        0.0173
@<TRIPOS>BOND
     1    24    25    1
     2    25    26    1
     3    25    18    1
     4    18    19    1
     5    19    20    1
     6    20    21    1
     7    21    17    1
     8    17     1    1
     9     1     2   ar
    10     2     3   ar
    11     3     4   ar
    12     4     5   ar
    13     5     6   ar
    14     5     7   ar
    15     7     8   ar
    16     8     9   ar
    17     9    10    1
    18    10    11    1
    19    11    12    1
    20    11    13    1
    21    13    14   am
    22    14    15    2
    23    21    22    1
    24    22    23    1
    25    23    18    1
    26     6     1   ar
    27    14     8    1
    28     9     4   ar
    29    13    16    1
@<TRIPOS>MOLECULE
*****
 26 29 0 0 0
SMALL
GASTEIGER

@<TRIPOS>ATOM
      1 C          63.7933   89.6364   13.5614 C.ar    1  UNL1        0.1385
      2 C          63.1798   89.1689   12.2749 C.ar    1  UNL1        0.0384
      3 C          63.0170   87.7013   12.0115 C.ar    1  UNL1        0.0203
      4 C          63.4677   86.7011   13.0345 C.ar    1  UNL1        0.0602
      5 C          64.0812   87.1686   14.3210 C.ar    1  UNL1        0.0204
      6 C          64.2440   88.6362   14.5844 C.ar    1  UNL1        0.0384
      7 C          64.4288   85.9580   15.1355 C.ar    1  UNL1        0.0233
      8 C          64.0302   84.7423   14.3525 C.ar    1  UNL1        0.1140
      9 N          63.4362   85.2015   13.0540 N.ar    1  UNL1       -0.3219
     10 C          62.9434   84.1949   12.0571 C.3     1  UNL1        0.1256
     11 C          63.0445   82.7291   12.3587 C.3     1  UNL1        0.0945
     12 C          62.5517   81.7224   11.3618 C.3     1  UNL1        0.0233
     13 N          63.6385   82.2698   13.6573 N.am    1  UNL1       -0.2994
     14 C          64.1314   83.2765   14.6542 C.2     1  UNL1        0.2618
     15 O          64.7254   82.8172   15.9528 O.2     1  UNL1       -0.2686
     16 H          63.7049   81.3077   13.8553 H       1  UNL1        0.1498
     17 O          63.9561   91.1041   13.8249 O.3     1  UNL1       -0.4791
     18 N          66.3404   93.6497   10.9814 N.3     1  UNL1       -0.2737
     19 C          66.6350   93.6902   12.4516 C.3     1  UNL1        0.0758
     20 C          65.8402   92.8417   13.3995 C.3     1  UNL1        0.0609
     21 C          64.7509   91.9526   12.8771 C.3     1  UNL1        0.1687
     22 C          64.4563   91.9121   11.4068 C.3     1  UNL1        0.0609
     23 C          65.2511   92.7606   10.4590 C.3     1  UNL1        0.0758
     24 C          68.1215   93.8591    9.1016 C.3     1  UNL1        0.0173
     25 C          67.1351   94.4982   10.0336 C.3     1  UNL1        0.0576
     26 C          66.9435   95.9859   10.0178 C.3     1  UNL1        0.0173
@<TRIPOS>BOND
     1    24    25    1
     2    25    26    1
     3    25    18    1
     4    18    19    1
     5    19    20    1
     6    20    21    1
     7    21    17    1
     8    17     1    1
     9     1     2   ar
    10     2     3   ar
    11     3     4   ar
    12     4     5   ar
    13     5     6   ar
    14     5     7   ar
    15     7     8   ar
    16     8     9   ar
    17     9    10    1
    18    10    11    1
    19    11    12    1
    20    11    13    1
    21    13    14   am
    22    14    15    2
    23    21    22    1
    24    22    23    1
    25    23    18    1
    26     6     1   ar
    27    14     8    1
    28     9     4   ar
    29    13    16    1
@<TRIPOS>MOLECULE
*****
 26 29 0 0 0
SMALL
GASTEIGER

@<TRIPOS>ATOM
      1 C          62.8341   88.5599   12.0266 C.ar    1  UNL1        0.1385
      2 C          63.4846   88.2908   13.3511 C.ar    1  UNL1        0.0384
      3 C          64.4127   89.3052   13.9507 C.ar    1  UNL1        0.0203
      4 C          64.6903   90.5887   13.2257 C.ar    1  UNL1        0.0602
      5 C          64.0398   90.8578   11.9012 C.ar    1  UNL1        0.0204
      6 C          63.1117   89.8434   11.3016 C.ar    1  UNL1        0.0384
      7 C          64.5009   92.2027   11.4231 C.ar    1  UNL1        0.0233
      8 C          65.4363   92.7649   12.4521 C.ar    1  UNL1        0.1140
      9 N          65.5534   91.7674   13.5662 N.ar    1  UNL1       -0.3219
     10 C          66.4308   92.0612   14.7468 C.3     1  UNL1        0.1256
     11 C          67.1911   93.3525   14.8132 C.3     1  UNL1        0.0945
     12 C          68.0686   93.6463   15.9939 C.3     1  UNL1        0.0233
     13 N          67.0740   94.3500   13.6991 N.am    1  UNL1       -0.2994
     14 C          66.1966   94.0561   12.5185 C.2     1  UNL1        0.2618
     15 O          66.0795   95.0537   11.4044 O.2     1  UNL1       -0.2686
     16 H          67.5731   95.1975   13.7428 H       1  UNL1        0.1498
     17 O          61.9059   87.5454   11.4270 O.3     1  UNL1       -0.4791
     18 N          62.9260   83.1671   11.6265 N.3     1  UNL1       -0.2737
     19 C          62.5777   83.9139   12.8798 C.3     1  UNL1        0.0758
     20 C          62.2377   85.3734   12.8134 C.3     1  UNL1        0.0609
     21 C          62.2459   86.0860   11.4935 C.3     1  UNL1        0.1687
     22 C          62.5942   85.3391   10.2401 C.3     1  UNL1        0.0609
     23 C          62.9342   83.8797   10.3066 C.3     1  UNL1        0.0758
     24 C          63.2766   80.8822   10.4406 C.3     1  UNL1        0.0173
     25 C          63.2660   81.7077   11.6930 C.3     1  UNL1        0.0576
     26 C          63.5954   81.0737   13.0120 C.3     1  UNL1        0.0173
@<TRIPOS>BOND
     1    24    25    1
     2    25    26    1
     3    25    18    1
     4    18    19    1
     5    19    20    1
     6    20    21    1
     7    21    17    1
     8    17     1    1
     9     1     2   ar
    10     2     3   ar
    11     3     4   ar
    12     4     5   ar
    13     5     6   ar
    14     5     7   ar
    15     7     8   ar
    16     8     9   ar
    17     9    10    1
    18    10    11    1
    19    11    12    1
    20    11    13    1
    21    13    14   am
    22    14    15    2
    23    21    22    1
    24    22    23    1
    25    23    18    1
    26     6     1   ar
    27    14     8    1
    28     9     4   ar
    29    13    16    1
@<TRIPOS>MOLECULE
*****
 26 29 0 0 0
SMALL
GASTEIGER

@<TRIPOS>ATOM
      1 C          61.5658   89.5598   11.2735 C.ar    1  UNL1        0.1385
      2 C          61.7816   89.3042   12.7357 C.ar    1  UNL1        0.0384
      3 C          62.8938   90.0002   13.4625 C.ar    1  UNL1        0.0203
      4 C          63.7904   90.9518   12.7272 C.ar    1  UNL1        0.0602
      5 C          63.5746   91.2074   11.2650 C.ar    1  UNL1        0.0204
      6 C          62.4623   90.5114   10.5382 C.ar    1  UNL1        0.0384
      7 C          64.6110   92.1910   10.8086 C.ar    1  UNL1        0.0233
      8 C          65.4673   92.5434   11.9887 C.ar    1  UNL1        0.1140
      9 N          64.9601   91.7775   13.1745 N.ar    1  UNL1       -0.3219
     10 C          65.6289   91.9309   14.5083 C.3     1  UNL1        0.1256
     11 C          66.8049   92.8502   14.6563 C.3     1  UNL1        0.0945
     12 C          67.4738   93.0036   15.9902 C.3     1  UNL1        0.0233
     13 N          67.3121   93.6161   13.4705 N.am    1  UNL1       -0.2994
     14 C          66.6432   93.4627   12.1367 C.2     1  UNL1        0.2618
     15 O          67.1504   94.2286   10.9508 O.2     1  UNL1       -0.2686
     16 H          68.0839   94.2194   13.5677 H       1  UNL1        0.1498
     17 O          60.4535   88.8638   10.5465 O.3     1  UNL1       -0.4791
     18 N          61.3976   85.7135    7.4751 N.3     1  UNL1       -0.2737
     19 C          62.3946   86.0376    8.5478 C.3     1  UNL1        0.0758
     20 C          62.0799   87.0878    9.5717 C.3     1  UNL1        0.0609
     21 C          60.7682   87.8137    9.5227 C.3     1  UNL1        0.1687
     22 C          59.7712   87.4895    8.4499 C.3     1  UNL1        0.0609
     23 C          60.0859   86.4394    7.4261 C.3     1  UNL1        0.0758
     24 C          63.1177   84.4987    5.9534 C.3     1  UNL1        0.0173
     25 C          61.7124   84.6634    6.4513 C.3     1  UNL1        0.0576
     26 C          60.6217   83.7779    5.9254 C.3     1  UNL1        0.0173
@<TRIPOS>BOND
     1    24    25    1
     2    25    26    1
     3    25    18    1
     4    18    19    1
     5    19    20    1
     6    20    21    1
     7    21    17    1
     8    17     1    1
     9     1     2   ar
    10     2     3   ar
    11     3     4   ar
    12     4     5   ar
    13     5     6   ar
    14     5     7   ar
    15     7     8   ar
    16     8     9   ar
    17     9    10    1
    18    10    11    1
    19    11    12    1
    20    11    13    1
    21    13    14   am
    22    14    15    2
    23    21    22    1
    24    22    23    1
    25    23    18    1
    26     6     1   ar
    27    14     8    1
    28     9     4   ar
    29    13    16    1
@<TRIPOS>MOLECULE
*****
 26 29 0 0 0
SMALL
GASTEIGER

@<TRIPOS>ATOM
      1 C          62.2905   89.0246   11.1547 C.ar    1  UNL1        0.1385
      2 C          62.3562   89.9925   10.0108 C.ar    1  UNL1        0.0384
      3 C          63.2023   91.2263   10.1200 C.ar    1  UNL1        0.0203
      4 C          63.9826   91.4921   11.3731 C.ar    1  UNL1        0.0602
      5 C          63.9169   90.5241   12.5171 C.ar    1  UNL1        0.0204
      6 C          63.0709   89.2904   12.4079 C.ar    1  UNL1        0.0384
      7 C          64.7897   91.0484   13.6186 C.ar    1  UNL1        0.0233
      8 C          65.3948   92.3405   13.1554 C.ar    1  UNL1        0.1140
      9 N          64.8960   92.6147   11.7676 N.ar    1  UNL1       -0.3219
     10 C          65.3380   93.8511   11.0425 C.3     1  UNL1        0.1256
     11 C          66.2787   94.8133   11.7051 C.3     1  UNL1        0.0945
     12 C          66.7207   96.0498   10.9800 C.3     1  UNL1        0.0233
     13 N          66.7775   94.5391   13.0929 N.am    1  UNL1       -0.2994
     14 C          66.3355   93.3026   13.8181 C.2     1  UNL1        0.2618
     15 O          66.8344   93.0284   15.2059 O.2     1  UNL1       -0.2686
     16 H          67.3949   95.1706   13.5278 H       1  UNL1        0.1498
     17 O          61.4444   87.7907   11.0455 O.3     1  UNL1       -0.4791
     18 N          61.6051   85.2748    7.3181 N.3     1  UNL1       -0.2737
     19 C          62.7902   85.3323    8.2358 C.3     1  UNL1        0.0758
     20 C          62.7367   86.1709    9.4783 C.3     1  UNL1        0.0609
     21 C          61.4980   86.9521    9.8031 C.3     1  UNL1        0.1687
     22 C          60.3129   86.8946    8.8853 C.3     1  UNL1        0.0609
     23 C          60.3665   86.0560    7.6428 C.3     1  UNL1        0.0758
     24 C          60.5102   83.5360    5.7282 C.3     1  UNL1        0.0173
     25 C          61.6587   84.4361    6.0756 C.3     1  UNL1        0.0576
     26 C          62.8609   84.4976    5.1805 C.3     1  UNL1        0.0173
@<TRIPOS>BOND
     1    24    25    1
     2    25    26    1
     3    25    18    1
     4    18    19    1
     5    19    20    1
     6    20    21    1
     7    21    17    1
     8    17     1    1
     9     1     2   ar
    10     2     3   ar
    11     3     4   ar
    12     4     5   ar
    13     5     6   ar
    14     5     7   ar
    15     7     8   ar
    16     8     9   ar
    17     9    10    1
    18    10    11    1
    19    11    12    1
    20    11    13    1
    21    13    14   am
    22    14    15    2
    23    21    22    1
    24    22    23    1
    25    23    18    1
    26     6     1   ar
    27    14     8    1
    28     9     4   ar
    29    13    16    1
@<TRIPOS>MOLECULE
*****
 26 29 0 0 0
SMALL
GASTEIGER

@<TRIPOS>ATOM
      1 C          63.5548   89.4030   13.0370 C.ar    1  UNL1        0.1385
      2 C          62.9319   88.8524   11.7885 C.ar    1  UNL1        0.0384
      3 C          62.8000   87.3692   11.6074 C.ar    1  UNL1        0.0203
      4 C          63.2911   86.4367   12.6748 C.ar    1  UNL1        0.0602
      5 C          63.9141   86.9873   13.9232 C.ar    1  UNL1        0.0204
      6 C          64.0459   88.4705   14.1043 C.ar    1  UNL1        0.0384
      7 C          64.3039   85.8311   14.7956 C.ar    1  UNL1        0.0233
      8 C          63.9218   84.5658   14.0863 C.ar    1  UNL1        0.1140
      9 N          63.2959   84.9400   12.7755 N.ar    1  UNL1       -0.3219
     10 C          62.8112   83.8698   11.8432 C.3     1  UNL1        0.1256
     11 C          62.9523   82.4252   12.2215 C.3     1  UNL1        0.0945
     12 C          62.4675   81.3548   11.2890 C.3     1  UNL1        0.0233
     13 N          63.5782   82.0509   13.5322 N.am    1  UNL1       -0.2994
     14 C          64.0630   83.1212   14.4647 C.2     1  UNL1        0.2618
     15 O          64.6889   82.7469   15.7755 O.2     1  UNL1       -0.2686
     16 H          63.6709   81.1027   13.7806 H       1  UNL1        0.1498
     17 O          63.6867   90.8862   13.2181 O.3     1  UNL1       -0.4791
     18 N          67.3592   92.5959   15.1776 N.3     1  UNL1       -0.2737
     19 C          67.3527   92.3272   13.7019 C.3     1  UNL1        0.0758
     20 C          66.1285   91.7573   13.0487 C.3     1  UNL1        0.0609
     21 C          64.9109   91.4561   13.8712 C.3     1  UNL1        0.1687
     22 C          64.9174   91.7249   15.3470 C.3     1  UNL1        0.0609
     23 C          66.1416   92.2948   16.0001 C.3     1  UNL1        0.0758
     24 C          68.8260   94.6459   15.8069 C.3     1  UNL1        0.0173
     25 C          68.5834   93.1658   15.8307 C.3     1  UNL1        0.0576
     26 C          69.5649   92.2557   16.5076 C.3     1  UNL1        0.0173
@<TRIPOS>BOND
     1    24    25    1
     2    25    26    1
     3    25    18    1
     4    18    19    1
     5    19    20    1
     6    20    21    1
     7    21    17    1
     8    17     1    1
     9     1     2   ar
    10     2     3   ar
    11     3     4   ar
    12     4     5   ar
    13     5     6   ar
    14     5     7   ar
    15     7     8   ar
    16     8     9   ar
    17     9    10    1
    18    10    11    1
    19    11    12    1
    20    11    13    1
    21    13    14   am
    22    14    15    2
    23    21    22    1
    24    22    23    1
    25    23    18    1
    26     6     1   ar
    27    14     8    1
    28     9     4   ar
    29    13    16    1
@<TRIPOS>MOLECULE
*****
 26 29 0 0 0
SMALL
GASTEIGER

@<TRIPOS>ATOM
      1 C          62.7892   90.0028   13.2550 C.ar    1  UNL1        0.1385
      2 C          63.5032   88.6977   13.0631 C.ar    1  UNL1        0.0384
      3 C          63.1648   87.8228   11.8927 C.ar    1  UNL1        0.0203
      4 C          62.1125   88.2530   10.9142 C.ar    1  UNL1        0.0602
      5 C          61.3985   89.5581   11.1061 C.ar    1  UNL1        0.0204
      6 C          61.7369   90.4330   12.2765 C.ar    1  UNL1        0.0384
      7 C          60.4143   89.7172    9.9854 C.ar    1  UNL1        0.0233
      8 C          60.5200   88.5104    9.1008 C.ar    1  UNL1        0.1140
      9 N          61.5695   87.6054    9.6748 N.ar    1  UNL1       -0.3219
     10 C          61.8951   86.3087    8.9949 C.3     1  UNL1        0.1256
     11 C          61.1713   85.9169    7.7409 C.3     1  UNL1        0.0945
     12 C          61.4969   84.6202    7.0609 C.3     1  UNL1        0.0233
     13 N          60.1217   86.8219    7.1669 N.am    1  UNL1       -0.2994
     14 C          59.7961   88.1186    7.8469 C.2     1  UNL1        0.2618
     15 O          58.7465   89.0236    7.2728 O.2     1  UNL1       -0.2686
     16 H          59.6466   86.5647    6.3439 H       1  UNL1        0.1498
     17 O          63.1276   90.8778   14.4255 O.3     1  UNL1       -0.4791
     18 N          67.3132   92.4543   14.9207 N.3     1  UNL1       -0.2737
     19 C          66.8534   91.9546   13.5833 C.3     1  UNL1        0.0758
     20 C          65.4581   91.4291   13.4182 C.3     1  UNL1        0.0609
     21 C          64.5228   91.4033   14.5906 C.3     1  UNL1        0.1687
     22 C          64.9827   91.9030   15.9281 C.3     1  UNL1        0.0609
     23 C          66.3779   92.4285   16.0931 C.3     1  UNL1        0.0758
     24 C          68.9808   94.0938   16.0525 C.3     1  UNL1        0.0173
     25 C          68.7084   92.9797   15.0857 C.3     1  UNL1        0.0576
     26 C          69.8313   92.3911   14.2840 C.3     1  UNL1        0.0173
@<TRIPOS>BOND
     1    24    25    1
     2    25    26    1
     3    25    18    1
     4    18    19    1
     5    19    20    1
     6    20    21    1
     7    21    17    1
     8    17     1    1
     9     1     2   ar
    10     2     3   ar
    11     3     4   ar
    12     4     5   ar
    13     5     6   ar
    14     5     7   ar
    15     7     8   ar
    16     8     9   ar
    17     9    10    1
    18    10    11    1
    19    11    12    1
    20    11    13    1
    21    13    14   am
    22    14    15    2
    23    21    22    1
    24    22    23    1
    25    23    18    1
    26     6     1   ar
    27    14     8    1
    28     9     4   ar
    29    13    16    1
@<TRIPOS>MOLECULE
*****
 26 29 0 0 0
SMALL
GASTEIGER

@<TRIPOS>ATOM
      1 C          73.0073   78.3996   11.8742 C.ar    1  UNL1        0.1385
      2 C          73.6330   77.1191   11.4064 C.ar    1  UNL1        0.0384
      3 C          73.2367   75.8168   12.0364 C.ar    1  UNL1        0.0203
      4 C          72.2148   75.7949   13.1342 C.ar    1  UNL1        0.0602
      5 C          71.5891   77.0754   13.6020 C.ar    1  UNL1        0.0204
      6 C          71.9854   78.3777   12.9720 C.ar    1  UNL1        0.0384
      7 C          70.6171   76.7439   14.6953 C.ar    1  UNL1        0.0233
      8 C          70.6420   75.2586   14.9031 C.ar    1  UNL1        0.1140
      9 N          71.6295   74.6720   13.9383 N.ar    1  UNL1       -0.3219
     10 C          71.8680   73.1914   13.9167 C.3     1  UNL1        0.1256
     11 C          71.1191   72.2971   14.8598 C.3     1  UNL1        0.0945
     12 C          71.3577   70.8164   14.8381 C.3     1  UNL1        0.0233
     13 N          70.1317   72.8837   15.8246 N.am    1  UNL1       -0.2994
     14 C          69.8931   74.3645   15.8463 C.2     1  UNL1        0.2618
     15 O          68.9056   74.9510   16.8111 O.2     1  UNL1       -0.2686
     16 H          69.6402   72.2968   16.4436 H       1  UNL1        0.1498
     17 O          73.4035   79.7020   11.2443 O.3     1  UNL1       -0.4791
     18 N          72.0923   80.6627    7.0481 N.3     1  UNL1       -0.2737
     19 C          72.9009   79.4283    7.3171 C.3     1  UNL1        0.0758
     20 C          73.3380   79.1080    8.7159 C.3     1  UNL1        0.0609
     21 C          72.9665   80.0222    9.8456 C.3     1  UNL1        0.1687
     22 C          72.1579   81.2567    9.5765 C.3     1  UNL1        0.0609
     23 C          71.7208   81.5769    8.1778 C.3     1  UNL1        0.0758
     24 C          70.4192   80.3471    5.0858 C.3     1  UNL1        0.0173
     25 C          71.6553   80.9829    5.6494 C.3     1  UNL1        0.0576
     26 C          72.4544   81.9391    4.8143 C.3     1  UNL1        0.0173
@<TRIPOS>BOND
     1    24    25    1
     2    25    26    1
     3    25    18    1
     4    18    19    1
     5    19    20    1
     6    20    21    1
     7    21    17    1
     8    17     1    1
     9     1     2   ar
    10     2     3   ar
    11     3     4   ar
    12     4     5   ar
    13     5     6   ar
    14     5     7   ar
    15     7     8   ar
    16     8     9   ar
    17     9    10    1
    18    10    11    1
    19    11    12    1
    20    11    13    1
    21    13    14   am
    22    14    15    2
    23    21    22    1
    24    22    23    1
    25    23    18    1
    26     6     1   ar
    27    14     8    1
    28     9     4   ar
    29    13    16    1
