@<TRIPOS>MOLECULE
*****
 41 42 0 0 0
SMALL
GASTEIGER

@<TRIPOS>ATOM
      1 C          61.8592   87.3202   10.4902 C.ar    1  UNL1        0.1414
      2 N          60.8868   87.0983    9.3699 N.ar    1  UNL1       -0.2291
      3 C          60.4452   88.4406    8.8667 C.ar    1  UNL1        0.1641
      4 S          61.1447   89.4921    9.6761 S.2     1  UNL1       -0.0619
      5 C          62.0186   88.7996   10.6795 C.ar    1  UNL1        0.0539
      6 C          62.8976   89.4691   11.6940 C.ar    1  UNL1        0.0191
      7 C          63.1226   88.8277   13.0312 C.ar    1  UNL1        0.0028
      8 C          64.0015   89.4971   14.0457 C.ar    1  UNL1        0.0208
      9 C          64.6555   90.8079   13.7231 C.ar    1  UNL1        0.1333
     10 C          64.4305   91.4493   12.3859 C.ar    1  UNL1        0.0867
     11 CL         65.0845   92.7601   12.0633 Cl      1  UNL1       -0.0800
     12 C          63.5515   90.7799   11.3714 C.ar    1  UNL1        0.0700
     13 CL         63.3266   91.4212   10.0342 Cl      1  UNL1       -0.0813
     14 S          65.5345   91.4774   14.7376 S.O2    1  UNL1        0.0613
     15 O          66.7496   91.0194   13.9870 O.2     1  UNL1       -0.1530
     16 O          64.3193   91.9354   15.4883 O.2     1  UNL1       -0.1530
     17 N          66.4135   92.1469   15.7521 N.3     1  UNL1       -0.1723
     18 H          66.9890   91.4163   16.1709 H       1  UNL1        0.1491
     19 C          67.3457   93.2435   15.3297 C.3     1  UNL1        0.1701
     20 C          66.9350   94.2037   14.2528 C.3     1  UNL1        0.0278
     21 C          68.6884   93.3801   15.9840 C.3     1  UNL1        0.4118
     22 F          70.0312   93.5166   16.6384 F       1  UNL1       -0.1685
     23 F          68.5647   94.8738   15.9262 F       1  UNL1       -0.1685
     24 F          68.8121   91.8863   16.0419 F       1  UNL1       -0.1685
     25 C          59.4745   88.6880    7.7502 C.2     1  UNL1        0.2699
     26 O          58.4152   87.6728    7.4386 O.2     1  UNL1       -0.2679
     27 N          59.5633   89.9507    6.9452 N.am    1  UNL1       -0.2969
     28 H          60.2586   90.6170    7.1497 H       1  UNL1        0.1499
     29 C          58.5926   90.1981    5.8287 C.3     1  UNL1        0.1166
     30 C          58.7575   91.3978    4.9436 C.3     1  UNL1        0.1064
     31 C          57.2677   91.5655    4.8933 C.3     1  UNL1        0.0311
     32 C          60.2473   91.2302    4.9939 C.3     1  UNL1        0.0311
     33 O          58.9224   92.5975    4.0586 O.3     1  UNL1       -0.3851
     34 H          58.0496   92.9584    3.8371 H       1  UNL1        0.2103
     35 N          62.9091   84.9478   10.6306 N.am    1  UNL1       -0.2748
     36 C          62.5507   86.2504   11.2823 C.2     1  UNL1        0.2673
     37 O          62.8840   86.4833   12.7262 O.2     1  UNL1       -0.2682
     38 C          64.3157   82.7651   10.7154 C.3     1  UNL1        0.0233
     39 C          63.6006   83.8780   11.4226 C.3     1  UNL1        0.0938
     40 C          62.5759   84.7149    9.1866 C.3     1  UNL1        0.0938
     41 C          63.4824   85.2405    8.1135 C.3     1  UNL1        0.0233
@<TRIPOS>BOND
     1    38    39    1
     2    39    35    1
     3    35    40    1
     4    40    41    1
     5    35    36   am
     6    36    37    2
     7    36     1    1
     8     1     2   ar
     9     2     3   ar
    10     3    25    1
    11    25    26    2
    12    25    27   am
    13    27    29    1
    14    29    30    1
    15    30    31    1
    16    30    32    1
    17    30    33    1
    18     3     4   ar
    19     4     5   ar
    20     5     6    1
    21     6     7   ar
    22     7     8   ar
    23     8     9   ar
    24     9    14    1
    25    14    15    2
    26    14    16    2
    27    14    17    1
    28    17    19    1
    29    19    20    1
    30    19    21    1
    31    21    22    1
    32    21    23    1
    33    21    24    1
    34     9    10   ar
    35    10    11    1
    36    10    12   ar
    37    12    13    1
    38     5     1   ar
    39    12     6   ar
    40    27    28    1
    41    33    34    1
    42    17    18    1
@<TRIPOS>MOLECULE
*****
 41 42 0 0 0
SMALL
GASTEIGER

@<TRIPOS>ATOM
      1 C          62.9623   89.5589   11.2075 C.ar    1  UNL1        0.1414
      2 N          63.4242   90.9841   11.1337 N.ar    1  UNL1       -0.2291
      3 C          64.3435   91.2340   12.2925 C.ar    1  UNL1        0.1641
      4 S          64.4496   89.9633   13.0824 S.2     1  UNL1       -0.0619
      5 C          63.5960   88.9280   12.4118 C.ar    1  UNL1        0.0539
      6 C          63.4089   87.5106   12.8659 C.ar    1  UNL1        0.0191
      7 C          62.7137   86.5235   11.9759 C.ar    1  UNL1        0.0028
      8 C          62.5266   85.1062   12.4299 C.ar    1  UNL1        0.0208
      9 C          63.0347   84.6760   13.7740 C.ar    1  UNL1        0.1333
     10 C          63.7299   85.6632   14.6641 C.ar    1  UNL1        0.0867
     11 CL         64.2381   85.2329   16.0083 Cl      1  UNL1       -0.0800
     12 C          63.9170   87.0805   14.2101 C.ar    1  UNL1        0.0700
     13 CL         64.6122   88.0676   15.1002 Cl      1  UNL1       -0.0813
     14 S          62.8477   83.2586   14.2281 S.O2    1  UNL1        0.0613
     15 O          64.0820   82.8552   13.4773 O.2     1  UNL1       -0.1530
     16 O          61.6134   83.6620   14.9789 O.2     1  UNL1       -0.1530
     17 N          62.6607   81.8413   14.6822 N.3     1  UNL1       -0.1723
     18 H          62.2722   81.8828   15.6244 H       1  UNL1        0.1491
     19 C          61.7872   80.9104   13.8944 C.3     1  UNL1        0.1701
     20 C          60.3513   80.7196   14.2838 C.3     1  UNL1        0.0278
     21 C          62.3498   80.1704   12.7172 C.3     1  UNL1        0.4118
     22 F          62.9123   79.4303   11.5400 F       1  UNL1       -0.1685
     23 F          62.0935   81.3633   11.8448 F       1  UNL1       -0.1685
     24 F          62.6060   78.9774   13.5896 F       1  UNL1       -0.1685
     25 C          65.0351   92.5275   12.6062 C.2     1  UNL1        0.2699
     26 O          65.3436   92.8871   14.0294 O.2     1  UNL1       -0.2679
     27 N          65.4183   93.4614   11.4967 N.am    1  UNL1       -0.2969
     28 H          65.2159   93.2254   10.5626 H       1  UNL1        0.1499
     29 C          66.1100   94.7549   11.8104 C.3     1  UNL1        0.1166
     30 C          66.5241   95.6729   10.6987 C.3     1  UNL1        0.1064
     31 C          66.0914   96.8554   11.5138 C.3     1  UNL1        0.0311
     32 C          66.9568   94.4904    9.8835 C.3     1  UNL1        0.0311
     33 O          66.9382   96.5907    9.5870 O.3     1  UNL1       -0.3851
     34 H          66.7636   97.5095    9.8443 H       1  UNL1        0.2103
     35 N          60.5632   89.1939   10.2796 N.am    1  UNL1       -0.2748
     36 C          62.0302   88.8833   10.2459 C.2     1  UNL1        0.2673
     37 O          62.5654   87.8971    9.2503 O.2     1  UNL1       -0.2682
     38 C          59.6845   88.8578    7.8578 C.3     1  UNL1        0.0233
     39 C          59.6311   88.5183    9.3179 C.3     1  UNL1        0.0938
     40 C          60.0280   90.1801   11.2751 C.3     1  UNL1        0.0938
     41 C          59.0682   89.7293   12.3359 C.3     1  UNL1        0.0233
@<TRIPOS>BOND
     1    38    39    1
     2    39    35    1
     3    35    40    1
     4    40    41    1
     5    35    36   am
     6    36    37    2
     7    36     1    1
     8     1     2   ar
     9     2     3   ar
    10     3    25    1
    11    25    26    2
    12    25    27   am
    13    27    29    1
    14    29    30    1
    15    30    31    1
    16    30    32    1
    17    30    33    1
    18     3     4   ar
    19     4     5   ar
    20     5     6    1
    21     6     7   ar
    22     7     8   ar
    23     8     9   ar
    24     9    14    1
    25    14    15    2
    26    14    16    2
    27    14    17    1
    28    17    19    1
    29    19    20    1
    30    19    21    1
    31    21    22    1
    32    21    23    1
    33    21    24    1
    34     9    10   ar
    35    10    11    1
    36    10    12   ar
    37    12    13    1
    38     5     1   ar
    39    12     6   ar
    40    27    28    1
    41    33    34    1
    42    17    18    1
@<TRIPOS>MOLECULE
*****
 41 42 0 0 0
SMALL
GASTEIGER

@<TRIPOS>ATOM
      1 C          61.6226   88.1676   11.4086 C.ar    1  UNL1        0.1414
      2 N          61.2569   86.7710   11.8156 N.ar    1  UNL1       -0.2291
      3 C          62.3601   86.2363   12.6801 C.ar    1  UNL1        0.1641
      4 S          63.4075   87.3025   12.8072 S.2     1  UNL1       -0.0619
      5 C          62.9517   88.4961   12.0214 C.ar    1  UNL1        0.0539
      6 C          63.6946   89.7909   11.8742 C.ar    1  UNL1        0.0191
      7 C          63.7508   90.4760   10.5410 C.ar    1  UNL1        0.0028
      8 C          64.4937   91.7708   10.3938 C.ar    1  UNL1        0.0208
      9 C          65.1804   92.3804   11.5799 C.ar    1  UNL1        0.1333
     10 C          65.1243   91.6953   12.9131 C.ar    1  UNL1        0.0867
     11 CL         65.8111   92.3050   14.0991 Cl      1  UNL1       -0.0800
     12 C          64.3814   90.4005   13.0603 C.ar    1  UNL1        0.0700
     13 CL         64.3252   89.7154   14.3935 Cl      1  UNL1       -0.0813
     14 S          65.9234   93.6752   11.4327 S.O2    1  UNL1        0.0613
     15 O          67.0581   93.1156   12.2383 O.2     1  UNL1       -0.1530
     16 O          64.7886   94.2348   10.6271 O.2     1  UNL1       -0.1530
     17 N          66.6663   94.9699   11.2856 N.3     1  UNL1       -0.1723
     18 H          67.4809   94.9131   11.8968 H       1  UNL1        0.1491
     19 C          67.1655   95.3993    9.9377 C.3     1  UNL1        0.1701
     20 C          67.1585   96.8517    9.5632 C.3     1  UNL1        0.0278
     21 C          67.6716   94.3762    8.9646 C.3     1  UNL1        0.4118
     22 F          68.1777   93.3531    7.9914 F       1  UNL1       -0.1685
     23 F          68.7556   93.9952    9.9288 F       1  UNL1       -0.1685
     24 F          66.5877   94.7572    8.0003 F       1  UNL1       -0.1685
     25 C          62.4075   84.8745   13.3072 C.2     1  UNL1        0.2699
     26 O          62.0790   84.7066   14.7612 O.2     1  UNL1       -0.2679
     27 N          62.7833   83.6807   12.4805 N.am    1  UNL1       -0.2969
     28 H          62.9989   83.7909   11.5262 H       1  UNL1        0.1499
     29 C          62.8307   82.3189   13.1076 C.3     1  UNL1        0.1166
     30 C          62.8236   81.0939   12.2420 C.3     1  UNL1        0.1064
     31 C          63.3593   81.9003   11.0963 C.3     1  UNL1        0.0311
     32 C          62.2878   80.2875   13.3877 C.3     1  UNL1        0.0311
     33 O          62.8164   79.8689   11.3765 O.3     1  UNL1       -0.3851
     34 H          63.1415   80.0965   10.4914 H       1  UNL1        0.2103
     35 N          60.5194   88.6992    9.1172 N.am    1  UNL1       -0.2748
     36 C          60.8030   89.0762   10.5410 C.2     1  UNL1        0.2673
     37 O          60.2670   90.3620   11.0973 O.2     1  UNL1       -0.2682
     38 C          59.3060   89.1726    6.8692 C.3     1  UNL1        0.0233
     39 C          59.6998   89.6077    8.2496 C.3     1  UNL1        0.0938
     40 C          61.0554   87.4133    8.5608 C.3     1  UNL1        0.0938
     41 C          60.1502   86.2272    8.4078 C.3     1  UNL1        0.0233
@<TRIPOS>BOND
     1    38    39    1
     2    39    35    1
     3    35    40    1
     4    40    41    1
     5    35    36   am
     6    36    37    2
     7    36     1    1
     8     1     2   ar
     9     2     3   ar
    10     3    25    1
    11    25    26    2
    12    25    27   am
    13    27    29    1
    14    29    30    1
    15    30    31    1
    16    30    32    1
    17    30    33    1
    18     3     4   ar
    19     4     5   ar
    20     5     6    1
    21     6     7   ar
    22     7     8   ar
    23     8     9   ar
    24     9    14    1
    25    14    15    2
    26    14    16    2
    27    14    17    1
    28    17    19    1
    29    19    20    1
    30    19    21    1
    31    21    22    1
    32    21    23    1
    33    21    24    1
    34     9    10   ar
    35    10    11    1
    36    10    12   ar
    37    12    13    1
    38     5     1   ar
    39    12     6   ar
    40    27    28    1
    41    33    34    1
    42    17    18    1
@<TRIPOS>MOLECULE
*****
 41 42 0 0 0
SMALL
GASTEIGER

@<TRIPOS>ATOM
      1 C          63.1035   90.2191   13.2838 C.ar    1  UNL1        0.1414
      2 N          63.7316   91.5771   13.3891 N.ar    1  UNL1       -0.2291
      3 C          64.9724   91.4507   14.2227 C.ar    1  UNL1        0.1641
      4 S          65.1110   90.0145   14.6325 S.2     1  UNL1       -0.0619
      5 C          63.9560   89.2533   14.0523 C.ar    1  UNL1        0.0539
      6 C          63.6987   87.7842   14.2124 C.ar    1  UNL1        0.0191
      7 C          63.7441   86.8801   13.0164 C.ar    1  UNL1        0.0028
      8 C          63.4869   85.4110   13.1764 C.ar    1  UNL1        0.0208
      9 C          63.1842   84.8461   14.5326 C.ar    1  UNL1        0.1333
     10 C          63.1388   85.7502   15.7286 C.ar    1  UNL1        0.0867
     11 CL         62.8361   85.1851   17.0848 Cl      1  UNL1       -0.0800
     12 C          63.3961   87.2192   15.5685 C.ar    1  UNL1        0.0700
     13 CL         63.3506   88.1233   16.7646 Cl      1  UNL1       -0.0813
     14 S          62.9269   83.3769   14.6927 S.O2    1  UNL1        0.0613
     15 O          64.3983   83.1073   14.5825 O.2     1  UNL1       -0.1530
     16 O          61.4555   83.6466   14.8029 O.2     1  UNL1       -0.1530
     17 N          62.6697   81.9079   14.8528 N.3     1  UNL1       -0.1723
     18 H          62.1851   81.7891   15.7425 H       1  UNL1        0.1491
     19 C          61.8686   81.1699   13.8214 C.3     1  UNL1        0.1701
     20 C          60.5008   80.6561   14.1607 C.3     1  UNL1        0.0278
     21 C          62.4353   80.9458   12.4508 C.3     1  UNL1        0.4118
     22 F          63.0021   80.7217   11.0803 F       1  UNL1       -0.1685
     23 F          62.1302   82.3699   12.0918 F       1  UNL1       -0.1685
     24 F          62.7405   79.5218   12.8099 F       1  UNL1       -0.1685
     25 C          65.9098   92.5649   14.5830 C.2     1  UNL1        0.2699
     26 O          65.9077   93.8346   13.7844 O.2     1  UNL1       -0.2679
     27 N          66.8492   92.4093   15.7421 N.am    1  UNL1       -0.2969
     28 H          66.8505   91.5760   16.2662 H       1  UNL1        0.1499
     29 C          67.7866   93.5235   16.1024 C.3     1  UNL1        0.1166
     30 C          69.1583   93.5748   15.4975 C.3     1  UNL1        0.1064
     31 C          68.9248   92.2398   14.8547 C.3     1  UNL1        0.0311
     32 C          69.3918   94.9099   16.1403 C.3     1  UNL1        0.0311
     33 O          70.5298   93.6262   14.8926 O.3     1  UNL1       -0.3851
     34 H          70.6831   92.8233   14.3703 H       1  UNL1        0.2103
     35 N          61.8433   89.8568   11.0409 N.am    1  UNL1       -0.2748
     36 C          61.8441   89.8854   12.5406 C.2     1  UNL1        0.2673
     37 O          60.5852   89.5804   13.2972 O.2     1  UNL1       -0.2682
     38 C          60.6096   88.5029    9.1984 C.3     1  UNL1        0.0233
     39 C          60.5839   89.5231   10.2977 C.3     1  UNL1        0.0938
     40 C          63.1022   90.1618   10.2843 C.3     1  UNL1        0.0938
     41 C          63.4777   91.5850    9.9959 C.3     1  UNL1        0.0233
@<TRIPOS>BOND
     1    38    39    1
     2    39    35    1
     3    35    40    1
     4    40    41    1
     5    35    36   am
     6    36    37    2
     7    36     1    1
     8     1     2   ar
     9     2     3   ar
    10     3    25    1
    11    25    26    2
    12    25    27   am
    13    27    29    1
    14    29    30    1
    15    30    31    1
    16    30    32    1
    17    30    33    1
    18     3     4   ar
    19     4     5   ar
    20     5     6    1
    21     6     7   ar
    22     7     8   ar
    23     8     9   ar
    24     9    14    1
    25    14    15    2
    26    14    16    2
    27    14    17    1
    28    17    19    1
    29    19    20    1
    30    19    21    1
    31    21    22    1
    32    21    23    1
    33    21    24    1
    34     9    10   ar
    35    10    11    1
    36    10    12   ar
    37    12    13    1
    38     5     1   ar
    39    12     6   ar
    40    27    28    1
    41    33    34    1
    42    17    18    1
@<TRIPOS>MOLECULE
*****
 41 42 0 0 0
SMALL
GASTEIGER

@<TRIPOS>ATOM
      1 C          62.5479   89.7645   13.0362 C.ar    1  UNL1        0.1414
      2 N          63.0148   91.0187   13.7137 N.ar    1  UNL1       -0.2291
      3 C          64.2743   90.6994   14.4632 C.ar    1  UNL1        0.1641
      4 S          64.5858   89.2478   14.2489 S.2     1  UNL1       -0.0619
      5 C          63.5188   88.6700   13.3670 C.ar    1  UNL1        0.0539
      6 C          63.4371   87.2475   12.8981 C.ar    1  UNL1        0.0191
      7 C          62.8049   86.9287   11.5758 C.ar    1  UNL1        0.0028
      8 C          62.7232   85.5063   11.1070 C.ar    1  UNL1        0.0208
      9 C          63.2737   84.4025   11.9605 C.ar    1  UNL1        0.1333
     10 C          63.9060   84.7213   13.2828 C.ar    1  UNL1        0.0867
     11 CL         64.4566   83.6174   14.1364 Cl      1  UNL1       -0.0800
     12 C          63.9877   86.1437   13.7517 C.ar    1  UNL1        0.0700
     13 CL         64.6200   86.4625   15.0740 Cl      1  UNL1       -0.0813
     14 S          63.1921   82.9800   11.4917 S.O2    1  UNL1        0.0613
     15 O          64.6592   82.9985   11.1799 O.2     1  UNL1       -0.1530
     16 O          61.7250   82.9614   11.8034 O.2     1  UNL1       -0.1530
     17 N          63.1105   81.5575   11.0229 N.3     1  UNL1       -0.1723
     18 H          64.0133   81.3330   10.6048 H       1  UNL1        0.1491
     19 C          62.8015   80.4622   12.0002 C.3     1  UNL1        0.1701
     20 C          62.6501   79.0493   11.5199 C.3     1  UNL1        0.0278
     21 C          62.6438   80.7800   13.4576 C.3     1  UNL1        0.4118
     22 F          62.4862   81.0977   14.9150 F       1  UNL1       -0.1685
     23 F          64.1338   80.7444   13.6265 F       1  UNL1       -0.1685
     24 F          61.1538   80.8155   13.2887 F       1  UNL1       -0.1685
     25 C          65.0807   91.6625   15.2830 C.2     1  UNL1        0.2699
     26 O          64.4487   92.3714   16.4440 O.2     1  UNL1       -0.2679
     27 N          66.5191   91.9167   14.9417 N.am    1  UNL1       -0.2969
     28 H          66.9339   91.4514   14.1797 H       1  UNL1        0.1499
     29 C          67.3255   92.8799   15.7615 C.3     1  UNL1        0.1166
     30 C          68.7360   93.2033   15.3664 C.3     1  UNL1        0.1064
     31 C          68.7617   94.3174   16.3705 C.3     1  UNL1        0.0311
     32 C          68.7102   92.0892   14.3623 C.3     1  UNL1        0.0311
     33 O          70.1463   93.5267   14.9714 O.3     1  UNL1       -0.3851
     34 H          70.4661   94.2756   15.4984 H       1  UNL1        0.2103
     35 N          61.4243   89.8208   10.6943 N.am    1  UNL1       -0.2748
     36 C          61.3248   89.6287   12.1786 C.2     1  UNL1        0.2673
     37 O          60.0020   89.3007   12.8053 O.2     1  UNL1       -0.2682
     38 C          60.2104   88.7560    8.6590 C.3     1  UNL1        0.0233
     39 C          60.2012   89.6849    9.8367 C.3     1  UNL1        0.0938
     40 C          62.7471   90.1488   10.0676 C.3     1  UNL1        0.0938
     41 C          63.2771   91.5508   10.1247 C.3     1  UNL1        0.0233
@<TRIPOS>BOND
     1    38    39    1
     2    39    35    1
     3    35    40    1
     4    40    41    1
     5    35    36   am
     6    36    37    2
     7    36     1    1
     8     1     2   ar
     9     2     3   ar
    10     3    25    1
    11    25    26    2
    12    25    27   am
    13    27    29    1
    14    29    30    1
    15    30    31    1
    16    30    32    1
    17    30    33    1
    18     3     4   ar
    19     4     5   ar
    20     5     6    1
    21     6     7   ar
    22     7     8   ar
    23     8     9   ar
    24     9    14    1
    25    14    15    2
    26    14    16    2
    27    14    17    1
    28    17    19    1
    29    19    20    1
    30    19    21    1
    31    21    22    1
    32    21    23    1
    33    21    24    1
    34     9    10   ar
    35    10    11    1
    36    10    12   ar
    37    12    13    1
    38     5     1   ar
    39    12     6   ar
    40    27    28    1
    41    33    34    1
    42    17    18    1
@<TRIPOS>MOLECULE
*****
 41 42 0 0 0
SMALL
GASTEIGER

@<TRIPOS>ATOM
      1 C          62.6978   90.4496   12.9943 C.ar    1  UNL1        0.1414
      2 N          63.2486   91.8282   12.7797 N.ar    1  UNL1       -0.2291
      3 C          64.7456   91.7406   12.8189 C.ar    1  UNL1        0.1641
      4 S          65.1199   90.3078   13.0577 S.2     1  UNL1       -0.0619
      5 C          63.8543   89.5099   13.1661 C.ar    1  UNL1        0.0539
      6 C          63.7616   88.0318   13.4045 C.ar    1  UNL1        0.0191
      7 C          64.2621   87.4470   14.6919 C.ar    1  UNL1        0.0028
      8 C          64.1694   85.9690   14.9303 C.ar    1  UNL1        0.0208
      9 C          63.5762   85.0759   13.8813 C.ar    1  UNL1        0.1333
     10 C          63.0756   85.6608   12.5939 C.ar    1  UNL1        0.0867
     11 CL         62.4823   84.7676   11.5450 Cl      1  UNL1       -0.0800
     12 C          63.1683   87.1387   12.3555 C.ar    1  UNL1        0.0700
     13 CL         62.6678   87.7236   11.0681 Cl      1  UNL1       -0.0813
     14 S          63.4834   83.5978   14.1197 S.O2    1  UNL1        0.0613
     15 O          62.1840   83.7959   14.8422 O.2     1  UNL1       -0.1530
     16 O          64.7829   83.3997   13.3972 O.2     1  UNL1       -0.1530
     17 N          63.3907   82.1198   14.3581 N.3     1  UNL1       -0.1723
     18 H          62.9263   81.9952   15.2577 H       1  UNL1        0.1491
     19 C          62.6711   81.2451   13.3746 C.3     1  UNL1        0.1701
     20 C          63.1046   81.2169   11.9388 C.3     1  UNL1        0.0278
     21 C          61.5183   80.3987   13.8268 C.3     1  UNL1        0.4118
     22 F          60.3654   79.5524   14.2790 F       1  UNL1       -0.1685
     23 F          62.2148   79.1745   13.3110 F       1  UNL1       -0.1685
     24 F          60.8218   81.6230   14.3425 F       1  UNL1       -0.1685
     25 C          65.7005   92.8848   12.6491 C.2     1  UNL1        0.2699
     26 O          66.7945   93.1037   13.6516 O.2     1  UNL1       -0.2679
     27 N          65.5614   93.8101   11.4767 N.am    1  UNL1       -0.2969
     28 H          64.8433   93.6664   10.8187 H       1  UNL1        0.1499
     29 C          66.5163   94.9544   11.3069 C.3     1  UNL1        0.1166
     30 C          67.1375   95.2204    9.9677 C.3     1  UNL1        0.1064
     31 C          66.9589   96.6949   10.1778 C.3     1  UNL1        0.0311
     32 C          67.3160   93.7459    9.7576 C.3     1  UNL1        0.0311
     33 O          67.7587   95.4864    8.6286 O.3     1  UNL1       -0.3851
     34 H          67.7837   96.4427    8.4681 H       1  UNL1        0.2103
     35 N          60.4302   90.1114   11.7721 N.am    1  UNL1       -0.2748
     36 C          61.2455   90.0762   13.0306 C.2     1  UNL1        0.2673
     37 O          60.6084   89.6676   14.3257 O.2     1  UNL1       -0.2682
     38 C          58.5065   88.6478   12.7245 C.3     1  UNL1        0.0233
     39 C          58.9779   89.7381   11.8084 C.3     1  UNL1        0.0938
     40 C          61.0673   90.5200   10.4770 C.3     1  UNL1        0.0938
     41 C          60.7181   89.7990    9.2090 C.3     1  UNL1        0.0233
@<TRIPOS>BOND
     1    38    39    1
     2    39    35    1
     3    35    40    1
     4    40    41    1
     5    35    36   am
     6    36    37    2
     7    36     1    1
     8     1     2   ar
     9     2     3   ar
    10     3    25    1
    11    25    26    2
    12    25    27   am
    13    27    29    1
    14    29    30    1
    15    30    31    1
    16    30    32    1
    17    30    33    1
    18     3     4   ar
    19     4     5   ar
    20     5     6    1
    21     6     7   ar
    22     7     8   ar
    23     8     9   ar
    24     9    14    1
    25    14    15    2
    26    14    16    2
    27    14    17    1
    28    17    19    1
    29    19    20    1
    30    19    21    1
    31    21    22    1
    32    21    23    1
    33    21    24    1
    34     9    10   ar
    35    10    11    1
    36    10    12   ar
    37    12    13    1
    38     5     1   ar
    39    12     6   ar
    40    27    28    1
    41    33    34    1
    42    17    18    1
@<TRIPOS>MOLECULE
*****
 41 42 0 0 0
SMALL
GASTEIGER

@<TRIPOS>ATOM
      1 C          63.0536   90.1409   13.2675 C.ar    1  UNL1        0.1414
      2 N          63.6501   91.5137   13.3660 N.ar    1  UNL1       -0.2291
      3 C          64.9396   91.4054   14.1246 C.ar    1  UNL1        0.1641
      4 S          65.1400   89.9657   14.4949 S.2     1  UNL1       -0.0619
      5 C          63.9744   89.1842   13.9652 C.ar    1  UNL1        0.0539
      6 C          63.7662   87.7056   14.1080 C.ar    1  UNL1        0.0191
      7 C          63.9588   87.0465   15.4417 C.ar    1  UNL1        0.0028
      8 C          63.7506   85.5680   15.5846 C.ar    1  UNL1        0.0208
      9 C          63.3499   84.7485   14.3939 C.ar    1  UNL1        0.1333
     10 C          63.1574   85.4075   13.0603 C.ar    1  UNL1        0.0867
     11 CL         62.7566   84.5879   11.8695 Cl      1  UNL1       -0.0800
     12 C          63.3655   86.8861   12.9173 C.ar    1  UNL1        0.0700
     13 CL         63.1730   87.5452   11.5837 Cl      1  UNL1       -0.0813
     14 S          63.1417   83.2698   14.5368 S.O2    1  UNL1        0.0613
     15 O          61.7203   83.5101   14.9514 O.2     1  UNL1       -0.1530
     16 O          64.5631   83.0296   14.1222 O.2     1  UNL1       -0.1530
     17 N          62.9335   81.7913   14.6797 N.3     1  UNL1       -0.1723
     18 H          62.3571   81.6540   15.5100 H       1  UNL1        0.1491
     19 C          62.2877   81.0142   13.5710 C.3     1  UNL1        0.1701
     20 C          62.7967   81.1476   12.1663 C.3     1  UNL1        0.0278
     21 C          61.1330   80.1037   13.8670 C.3     1  UNL1        0.4118
     22 F          59.9783   79.1932   14.1630 F       1  UNL1       -0.1685
     23 F          60.2862   81.2913   14.2169 F       1  UNL1       -0.1685
     24 F          61.9798   78.9160   13.5171 F       1  UNL1       -0.1685
     25 C          65.8660   92.5380   14.4550 C.2     1  UNL1        0.2699
     26 O          65.8813   93.7688   13.5977 O.2     1  UNL1       -0.2679
     27 N          66.7771   92.4397   15.6425 N.am    1  UNL1       -0.2969
     28 H          66.7671   91.6319   16.2051 H       1  UNL1        0.1499
     29 C          67.7035   93.5722   15.9728 C.3     1  UNL1        0.1166
     30 C          69.1129   93.5625   15.4594 C.3     1  UNL1        0.1064
     31 C          69.3681   94.8772   16.1350 C.3     1  UNL1        0.0311
     32 C          68.8577   92.2478   14.7839 C.3     1  UNL1        0.0311
     33 O          70.5222   93.5528   14.9461 O.3     1  UNL1       -0.3851
     34 H          70.9816   94.3522   15.2473 H       1  UNL1        0.2103
     35 N          61.6735   89.7995   11.0929 N.am    1  UNL1       -0.2748
     36 C          61.7629   89.7870   12.5901 C.2     1  UNL1        0.2673
     37 O          60.5615   89.4206   13.4102 O.2     1  UNL1       -0.2682
     38 C          60.3846   89.0040    8.9820 C.3     1  UNL1        0.0233
     39 C          60.3828   89.4456   10.4155 C.3     1  UNL1        0.0938
     40 C          62.8749   90.1659   10.2728 C.3     1  UNL1        0.0938
     41 C          63.1865   91.6078   10.0016 C.3     1  UNL1        0.0233
@<TRIPOS>BOND
     1    38    39    1
     2    39    35    1
     3    35    40    1
     4    40    41    1
     5    35    36   am
     6    36    37    2
     7    36     1    1
     8     1     2   ar
     9     2     3   ar
    10     3    25    1
    11    25    26    2
    12    25    27   am
    13    27    29    1
    14    29    30    1
    15    30    31    1
    16    30    32    1
    17    30    33    1
    18     3     4   ar
    19     4     5   ar
    20     5     6    1
    21     6     7   ar
    22     7     8   ar
    23     8     9   ar
    24     9    14    1
    25    14    15    2
    26    14    16    2
    27    14    17    1
    28    17    19    1
    29    19    20    1
    30    19    21    1
    31    21    22    1
    32    21    23    1
    33    21    24    1
    34     9    10   ar
    35    10    11    1
    36    10    12   ar
    37    12    13    1
    38     5     1   ar
    39    12     6   ar
    40    27    28    1
    41    33    34    1
    42    17    18    1
@<TRIPOS>MOLECULE
*****
 41 42 0 0 0
SMALL
GASTEIGER

@<TRIPOS>ATOM
      1 C          60.6954   89.3095   10.0738 C.ar    1  UNL1        0.1414
      2 N          60.0872   90.2398    9.0666 N.ar    1  UNL1       -0.2291
      3 C          59.9741   89.5036    7.7645 C.ar    1  UNL1        0.1641
      4 S          60.5124   88.1183    7.9672 S.2     1  UNL1       -0.0619
      5 C          60.9582   87.9983    9.3944 C.ar    1  UNL1        0.0539
      6 C          61.5609   86.7808   10.0304 C.ar    1  UNL1        0.0191
      7 C          61.3275   86.5014   11.4856 C.ar    1  UNL1        0.0028
      8 C          61.9302   85.2840   12.1216 C.ar    1  UNL1        0.0208
      9 C          62.7664   84.3460   11.3025 C.ar    1  UNL1        0.1333
     10 C          62.9999   84.6255    9.8474 C.ar    1  UNL1        0.0867
     11 CL         63.8361   83.6874    9.0283 Cl      1  UNL1       -0.0800
     12 C          62.3971   85.8429    9.2114 C.ar    1  UNL1        0.0700
     13 CL         62.6306   86.1223    7.7562 Cl      1  UNL1       -0.0813
     14 S          63.3691   83.1285   11.9386 S.O2    1  UNL1        0.0613
     15 O          64.5617   83.9370   12.3558 O.2     1  UNL1       -0.1530
     16 O          62.1766   82.3201   11.5214 O.2     1  UNL1       -0.1530
     17 N          63.9719   81.9112   12.5746 N.3     1  UNL1       -0.1723
     18 H          64.9562   82.1219   12.7396 H       1  UNL1        0.1491
     19 C          63.4185   81.3882   13.8670 C.3     1  UNL1        0.1701
     20 C          63.3632   79.9100   14.1157 C.3     1  UNL1        0.0278
     21 C          62.9203   82.3435   14.9107 C.3     1  UNL1        0.4118
     22 F          62.4221   83.2987   15.9543 F       1  UNL1       -0.1685
     23 F          64.3303   82.7697   15.1936 F       1  UNL1       -0.1685
     24 F          61.5103   81.9172   14.6278 F       1  UNL1       -0.1685
     25 C          59.4200   90.0558    6.4847 C.2     1  UNL1        0.2699
     26 O          58.0020   89.7626    6.0932 O.2     1  UNL1       -0.2679
     27 N          60.2839   90.9011    5.5964 N.am    1  UNL1       -0.2969
     28 H          61.2145   91.0936    5.8534 H       1  UNL1        0.1499
     29 C          59.7298   91.4533    4.3165 C.3     1  UNL1        0.1166
     30 C          60.6397   92.1334    3.3370 C.3     1  UNL1        0.1064
     31 C          59.4654   92.8589    2.7498 C.3     1  UNL1        0.0311
     32 C          61.8140   91.4079    3.9241 C.3     1  UNL1        0.0311
     33 O          61.5496   92.8135    2.3575 O.3     1  UNL1       -0.3851
     34 H          61.0298   93.4024    1.7884 H       1  UNL1        0.2103
     35 N          62.3524   90.1185   11.9041 N.am    1  UNL1       -0.2748
     36 C          60.9892   89.6335   11.5086 C.2     1  UNL1        0.2673
     37 O          59.9197   89.4725   12.5480 O.2     1  UNL1       -0.2682
     38 C          63.7951   89.7780   14.0378 C.3     1  UNL1        0.0233
     39 C          62.6462   90.4425   13.3389 C.3     1  UNL1        0.0938
     40 C          63.4219   90.2795   10.8647 C.3     1  UNL1        0.0938
     41 C          63.8625   91.6514   10.4482 C.3     1  UNL1        0.0233
@<TRIPOS>BOND
     1    38    39    1
     2    39    35    1
     3    35    40    1
     4    40    41    1
     5    35    36   am
     6    36    37    2
     7    36     1    1
     8     1     2   ar
     9     2     3   ar
    10     3    25    1
    11    25    26    2
    12    25    27   am
    13    27    29    1
    14    29    30    1
    15    30    31    1
    16    30    32    1
    17    30    33    1
    18     3     4   ar
    19     4     5   ar
    20     5     6    1
    21     6     7   ar
    22     7     8   ar
    23     8     9   ar
    24     9    14    1
    25    14    15    2
    26    14    16    2
    27    14    17    1
    28    17    19    1
    29    19    20    1
    30    19    21    1
    31    21    22    1
    32    21    23    1
    33    21    24    1
    34     9    10   ar
    35    10    11    1
    36    10    12   ar
    37    12    13    1
    38     5     1   ar
    39    12     6   ar
    40    27    28    1
    41    33    34    1
    42    17    18    1
@<TRIPOS>MOLECULE
*****
 41 42 0 0 0
SMALL
GASTEIGER

@<TRIPOS>ATOM
      1 C          59.7507   94.5150   -0.7104 C.ar    1  UNL1        0.1414
      2 N          59.3156   93.9293    0.6001 N.ar    1  UNL1       -0.2291
      3 C          60.5408   93.4626    1.3289 C.ar    1  UNL1        0.1641
      4 S          61.7331   93.7599    0.4688 S.2     1  UNL1       -0.0619
      5 C          61.2448   94.4104   -0.7916 C.ar    1  UNL1        0.0539
      6 C          62.1005   94.8747   -1.9328 C.ar    1  UNL1        0.0191
      7 C          62.2724   96.3419   -2.1928 C.ar    1  UNL1        0.0028
      8 C          63.1280   96.8062   -3.3340 C.ar    1  UNL1        0.0208
      9 C          63.8118   95.8033   -4.2151 C.ar    1  UNL1        0.1333
     10 C          63.6400   94.3360   -3.9551 C.ar    1  UNL1        0.0867
     11 CL         64.3239   93.3330   -4.8363 Cl      1  UNL1       -0.0800
     12 C          62.7844   93.8717   -2.8139 C.ar    1  UNL1        0.0700
     13 CL         62.6125   92.4044   -2.5539 Cl      1  UNL1       -0.0813
     14 S          64.6675   96.2676   -5.3563 S.O2    1  UNL1        0.0613
     15 O          65.8583   96.3122   -4.4452 O.2     1  UNL1       -0.1530
     16 O          63.4768   96.2229   -6.2674 O.2     1  UNL1       -0.1530
     17 N          65.5232   96.7318   -6.4974 N.3     1  UNL1       -0.1723
     18 H          65.7161   97.7206   -6.3376 H       1  UNL1        0.1491
     19 C          66.8433   96.0705   -6.7625 C.3     1  UNL1        0.1701
     20 C          68.1151   96.8545   -6.6288 C.3     1  UNL1        0.0278
     21 C          66.8915   94.6254   -7.1613 C.3     1  UNL1        0.4118
     22 F          66.9397   93.1802   -7.5600 F       1  UNL1       -0.1685
     23 F          65.4148   94.6485   -7.4235 F       1  UNL1       -0.1685
     24 F          68.3682   94.6022   -6.8990 F       1  UNL1       -0.1685
     25 C          60.5687   92.8127    2.6805 C.2     1  UNL1        0.2699
     26 O          61.8660   92.3176    3.2480 O.2     1  UNL1       -0.2679
     27 N          59.2994   92.6578    3.4646 N.am    1  UNL1       -0.2969
     28 H          58.4479   92.9827    3.0922 H       1  UNL1        0.1499
     29 C          59.3273   92.0079    4.8162 C.3     1  UNL1        0.1166
     30 C          58.2093   91.0997    5.2350 C.3     1  UNL1        0.1064
     31 C          59.2069   90.1313    5.7981 C.3     1  UNL1        0.0311
     32 C          57.2117   92.0680    4.6718 C.3     1  UNL1        0.0311
     33 O          57.0914   90.1915    5.6537 O.3     1  UNL1       -0.3851
     34 H          57.4587   89.4053    6.0872 H       1  UNL1        0.2103
     35 N          58.0255   94.2019   -2.6276 N.am    1  UNL1       -0.2748
     36 C          58.8499   95.1023   -1.7561 C.2     1  UNL1        0.2673
     37 O          58.7735   96.5903   -1.9304 O.2     1  UNL1       -0.2682
     38 C          55.6430   94.8395   -3.4445 C.3     1  UNL1        0.0233
     39 C          57.1246   94.7892   -3.6733 C.3     1  UNL1        0.0938
     40 C          58.1019   92.7139   -2.4533 C.3     1  UNL1        0.0938
     41 C          57.5265   91.8058   -3.4992 C.3     1  UNL1        0.0233
@<TRIPOS>BOND
     1    38    39    1
     2    39    35    1
     3    35    40    1
     4    40    41    1
     5    35    36   am
     6    36    37    2
     7    36     1    1
     8     1     2   ar
     9     2     3   ar
    10     3    25    1
    11    25    26    2
    12    25    27   am
    13    27    29    1
    14    29    30    1
    15    30    31    1
    16    30    32    1
    17    30    33    1
    18     3     4   ar
    19     4     5   ar
    20     5     6    1
    21     6     7   ar
    22     7     8   ar
    23     8     9   ar
    24     9    14    1
    25    14    15    2
    26    14    16    2
    27    14    17    1
    28    17    19    1
    29    19    20    1
    30    19    21    1
    31    21    22    1
    32    21    23    1
    33    21    24    1
    34     9    10   ar
    35    10    11    1
    36    10    12   ar
    37    12    13    1
    38     5     1   ar
    39    12     6   ar
    40    27    28    1
    41    33    34    1
    42    17    18    1
