@<TRIPOS>MOLECULE
*****
 28 31 0 0 0
SMALL
GASTEIGER

@<TRIPOS>ATOM
      1 C          62.9465   88.2720   12.2807 C.ar    1  UNL1        0.0916
      2 N          63.1653   87.0104   13.0620 N.ar    1  UNL1       -0.2283
      3 C          64.0469   87.0230   14.2753 C.ar    1  UNL1        0.1633
      4 N          64.7100   88.2973   14.7075 N.ar    1  UNL1       -0.2283
      5 C          64.4912   89.5589   13.9261 C.ar    1  UNL1        0.0906
      6 C          65.0077   90.9552   14.1094 C.ar    1  UNL1        0.0267
      7 C          64.4451   91.8055   13.0092 C.ar    1  UNL1        0.0371
      8 S          63.5810   90.9348   12.1460 S.2     1  UNL1       -0.0833
      9 C          63.6095   89.5462   12.7127 C.ar    1  UNL1        0.0648
     10 C          60.3012   88.2341    8.6404 C.ar    1  UNL1        0.2250
     11 C          61.3242   87.1546    8.8354 C.ar    1  UNL1        0.0578
     12 C          62.2060   87.1672   10.0488 C.ar    1  UNL1        0.0079
     13 C          62.0647   88.2593   11.0672 C.ar    1  UNL1        0.0376
     14 C          61.0416   89.3389   10.8723 C.ar    1  UNL1        0.1035
     15 N          60.1599   89.3263    9.6589 N.ar    1  UNL1       -0.2101
     16 C          59.3444   89.4301    6.5418 C.3     1  UNL1        0.2542
     17 O          59.4195   88.2215    7.4271 O.3     1  UNL1       -0.4561
     18 C          64.2657   85.7613   15.0567 C.3     1  UNL1        0.2209
     19 S          63.8094   84.4455   14.4996 S.O2    1  UNL1        0.0161
     20 O          62.4649   84.6429   15.1347 O.2     1  UNL1       -0.1682
     21 O          65.1539   84.2481   13.8645 O.2     1  UNL1       -0.1682
     22 C          63.3531   83.1297   13.9425 C.ar    1  UNL1        0.1070
     23 C          64.2014   82.4050   12.9399 C.ar    1  UNL1        0.0184
     24 C          63.7451   81.0891   12.3828 C.ar    1  UNL1        0.0022
     25 C          62.4404   80.4980   12.8283 C.ar    1  UNL1        0.0115
     26 C          61.5920   81.2227   13.8309 C.ar    1  UNL1        0.0590
     27 CL         60.2874   80.6316   14.2764 Cl      1  UNL1       -0.0822
     28 C          62.0484   82.5385   14.3880 C.ar    1  UNL1        0.0297
@<TRIPOS>BOND
     1    16    17    1
     2    17    10    1
     3    10    11   ar
     4    11    12   ar
     5    12    13   ar
     6    13     1    1
     7     1     2   ar
     8     2     3   ar
     9     3    18    1
    10    18    19    1
    11    19    20    2
    12    19    21    2
    13    19    22    1
    14    22    23   ar
    15    23    24   ar
    16    24    25   ar
    17    25    26   ar
    18    26    27    1
    19    26    28   ar
    20     3     4   ar
    21     4     5   ar
    22     5     6   ar
    23     6     7   ar
    24     7     8   ar
    25     8     9   ar
    26    13    14   ar
    27    14    15   ar
    28    15    10   ar
    29     9     1   ar
    30    28    22   ar
    31     9     5   ar
@<TRIPOS>MOLECULE
*****
 28 31 0 0 0
SMALL
GASTEIGER

@<TRIPOS>ATOM
      1 C          61.7684   86.9638   10.5343 C.ar    1  UNL1        0.0916
      2 N          62.0738   88.1988   11.3289 N.ar    1  UNL1       -0.2283
      3 C          61.4735   89.5144   10.9307 C.ar    1  UNL1        0.1633
      4 N          60.5678   89.5951    9.7376 N.ar    1  UNL1       -0.2283
      5 C          60.2624   88.3601    8.9430 C.ar    1  UNL1        0.0906
      6 C          59.4119   88.1329    7.7285 C.ar    1  UNL1        0.0267
      7 C          59.4865   86.6768    7.3762 C.ar    1  UNL1        0.0371
      8 S          60.3832   86.0041    8.3730 S.2     1  UNL1       -0.0833
      9 C          60.8627   87.0445    9.3413 C.ar    1  UNL1        0.0648
     10 C          63.5692   83.0167   11.7294 C.ar    1  UNL1        0.2250
     11 C          63.6902   83.4985   10.3140 C.ar    1  UNL1        0.0578
     12 C          63.0899   84.8142    9.9156 C.ar    1  UNL1        0.0079
     13 C          62.3687   85.6481   10.9326 C.ar    1  UNL1        0.0376
     14 C          62.2477   85.1663   12.3481 C.ar    1  UNL1        0.1035
     15 N          62.8479   83.8507   12.7464 N.ar    1  UNL1       -0.2101
     16 C          63.7006   81.0092   13.3733 C.3     1  UNL1        0.2542
     17 O          64.1695   81.7011   12.1277 O.3     1  UNL1       -0.4561
     18 C          61.7790   90.7495   11.7254 C.3     1  UNL1        0.2209
     19 S          63.2027   91.1703   11.9398 S.O2    1  UNL1        0.0161
     20 O          63.1026   90.7735   13.3829 O.2     1  UNL1       -0.1682
     21 O          63.3027   91.5672   10.4967 O.2     1  UNL1       -0.1682
     22 C          64.6263   91.5912   12.1542 C.ar    1  UNL1        0.1070
     23 C          65.3871   92.2559   11.0453 C.ar    1  UNL1        0.0184
     24 C          66.8108   92.6768   11.2597 C.ar    1  UNL1        0.0022
     25 C          67.4738   92.4330   12.5831 C.ar    1  UNL1        0.0115
     26 C          66.7130   91.7683   13.6920 C.ar    1  UNL1        0.0590
     27 CL         67.3759   91.5246   15.0152 Cl      1  UNL1       -0.0822
     28 C          65.2893   91.3475   13.4774 C.ar    1  UNL1        0.0297
@<TRIPOS>BOND
     1    16    17    1
     2    17    10    1
     3    10    11   ar
     4    11    12   ar
     5    12    13   ar
     6    13     1    1
     7     1     2   ar
     8     2     3   ar
     9     3    18    1
    10    18    19    1
    11    19    20    2
    12    19    21    2
    13    19    22    1
    14    22    23   ar
    15    23    24   ar
    16    24    25   ar
    17    25    26   ar
    18    26    27    1
    19    26    28   ar
    20     3     4   ar
    21     4     5   ar
    22     5     6   ar
    23     6     7   ar
    24     7     8   ar
    25     8     9   ar
    26    13    14   ar
    27    14    15   ar
    28    15    10   ar
    29     9     1   ar
    30    28    22   ar
    31     9     5   ar
@<TRIPOS>MOLECULE
*****
 28 31 0 0 0
SMALL
GASTEIGER

@<TRIPOS>ATOM
      1 C          62.5483   87.4800   11.5302 C.ar    1  UNL1        0.0916
      2 N          63.2626   88.6030   12.2219 N.ar    1  UNL1       -0.2283
      3 C          62.9371   90.0255   11.8750 C.ar    1  UNL1        0.1633
      4 N          61.8972   90.3251   10.8363 N.ar    1  UNL1       -0.2283
      5 C          61.1828   89.2021   10.1446 C.ar    1  UNL1        0.0906
      6 C          60.1189   89.1896    9.0873 C.ar    1  UNL1        0.0267
      7 C          59.7869   87.7593    8.7807 C.ar    1  UNL1        0.0371
      8 S          60.6456   86.8878    9.6486 S.2     1  UNL1       -0.0833
      9 C          61.5083   87.7796   10.4915 C.ar    1  UNL1        0.0648
     10 C          63.5249   83.2123   12.5711 C.ar    1  UNL1        0.2250
     11 C          63.0310   83.5550   11.1968 C.ar    1  UNL1        0.0578
     12 C          62.7055   84.9775   10.8498 C.ar    1  UNL1        0.0079
     13 C          62.8738   86.0574   11.8771 C.ar    1  UNL1        0.0376
     14 C          63.3677   85.7148   13.2515 C.ar    1  UNL1        0.1035
     15 N          63.6933   84.2923   13.5984 N.ar    1  UNL1       -0.2101
     16 C          62.8732   80.9670   13.7042 C.3     1  UNL1        0.2542
     17 O          63.8505   81.7899   12.9180 O.3     1  UNL1       -0.4561
     18 C          63.6515   91.1486   12.5668 C.3     1  UNL1        0.2209
     19 S          64.6476   91.9802   11.8143 S.O2    1  UNL1        0.0161
     20 O          65.2433   92.4406   13.1117 O.2     1  UNL1       -0.1682
     21 O          64.0520   91.5197   10.5170 O.2     1  UNL1       -0.1682
     22 C          65.6437   92.8118   11.0619 C.ar    1  UNL1        0.1070
     23 C          65.4603   94.2974   10.9659 C.ar    1  UNL1        0.0184
     24 C          66.4564   95.1290   10.2134 C.ar    1  UNL1        0.0022
     25 C          67.6360   94.4750    9.5569 C.ar    1  UNL1        0.0115
     26 C          67.8194   92.9892    9.6529 C.ar    1  UNL1        0.0590
     27 CL         68.9989   92.3352    8.9964 Cl      1  UNL1       -0.0822
     28 C          66.8232   92.1578   10.4053 C.ar    1  UNL1        0.0297
@<TRIPOS>BOND
     1    16    17    1
     2    17    10    1
     3    10    11   ar
     4    11    12   ar
     5    12    13   ar
     6    13     1    1
     7     1     2   ar
     8     2     3   ar
     9     3    18    1
    10    18    19    1
    11    19    20    2
    12    19    21    2
    13    19    22    1
    14    22    23   ar
    15    23    24   ar
    16    24    25   ar
    17    25    26   ar
    18    26    27    1
    19    26    28   ar
    20     3     4   ar
    21     4     5   ar
    22     5     6   ar
    23     6     7   ar
    24     7     8   ar
    25     8     9   ar
    26    13    14   ar
    27    14    15   ar
    28    15    10   ar
    29     9     1   ar
    30    28    22   ar
    31     9     5   ar
@<TRIPOS>MOLECULE
*****
 28 31 0 0 0
SMALL
GASTEIGER

@<TRIPOS>ATOM
      1 C          63.4532   89.4035   12.1213 C.ar    1  UNL1        0.0916
      2 N          63.8701   88.3116   13.0616 N.ar    1  UNL1       -0.2283
      3 C          63.1650   86.9881   13.0337 C.ar    1  UNL1        0.1633
      4 N          62.0428   86.7562   12.0655 N.ar    1  UNL1       -0.2283
      5 C          61.6260   87.8481   11.1253 C.ar    1  UNL1        0.0906
      6 C          60.5630   87.9113   10.0688 C.ar    1  UNL1        0.0267
      7 C          60.6113   89.2740    9.4438 C.ar    1  UNL1        0.0371
      8 S          61.7040   90.0530   10.1140 S.2     1  UNL1       -0.0833
      9 C          62.3311   89.1717   11.1532 C.ar    1  UNL1        0.0648
     10 C          65.5687   93.3743   12.2051 C.ar    1  UNL1        0.2250
     11 C          65.0293   92.8391   10.9119 C.ar    1  UNL1        0.0578
     12 C          64.3241   91.5154   10.8839 C.ar    1  UNL1        0.0079
     13 C          64.1584   90.7271   12.1492 C.ar    1  UNL1        0.0376
     14 C          64.6978   91.2624   13.4425 C.ar    1  UNL1        0.1035
     15 N          65.4030   92.5859   13.4705 N.ar    1  UNL1       -0.2101
     16 C          65.9816   95.7259   11.1804 C.3     1  UNL1        0.2542
     17 O          66.2739   94.6979   12.2330 O.3     1  UNL1       -0.4561
     18 C          63.5819   85.8962   13.9740 C.3     1  UNL1        0.2209
     19 S          63.2339   84.4695   13.6681 S.O2    1  UNL1        0.0161
     20 O          62.0709   84.5508   14.6119 O.2     1  UNL1       -0.1682
     21 O          64.3969   84.3882   12.7242 O.2     1  UNL1       -0.1682
     22 C          62.8859   83.0428   13.3621 C.ar    1  UNL1        0.1070
     23 C          62.2432   82.1859   14.4122 C.ar    1  UNL1        0.0184
     24 C          61.8952   80.7592   14.1062 C.ar    1  UNL1        0.0022
     25 C          62.1900   80.1895   12.7502 C.ar    1  UNL1        0.0115
     26 C          62.8327   81.0466   11.7002 C.ar    1  UNL1        0.0590
     27 CL         63.1274   80.4769   10.3442 Cl      1  UNL1       -0.0822
     28 C          63.1806   82.4732   12.0062 C.ar    1  UNL1        0.0297
@<TRIPOS>BOND
     1    16    17    1
     2    17    10    1
     3    10    11   ar
     4    11    12   ar
     5    12    13   ar
     6    13     1    1
     7     1     2   ar
     8     2     3   ar
     9     3    18    1
    10    18    19    1
    11    19    20    2
    12    19    21    2
    13    19    22    1
    14    22    23   ar
    15    23    24   ar
    16    24    25   ar
    17    25    26   ar
    18    26    27    1
    19    26    28   ar
    20     3     4   ar
    21     4     5   ar
    22     5     6   ar
    23     6     7   ar
    24     7     8   ar
    25     8     9   ar
    26    13    14   ar
    27    14    15   ar
    28    15    10   ar
    29     9     1   ar
    30    28    22   ar
    31     9     5   ar
@<TRIPOS>MOLECULE
*****
 28 31 0 0 0
SMALL
GASTEIGER

@<TRIPOS>ATOM
      1 C          62.7451   87.0127   11.5758 C.ar    1  UNL1        0.0916
      2 N          62.8121   88.4904   11.8247 N.ar    1  UNL1       -0.2283
      3 C          63.3539   89.0084   13.1238 C.ar    1  UNL1        0.1633
      4 N          63.8288   88.0487   14.1744 N.ar    1  UNL1       -0.2283
      5 C          63.7619   86.5710   13.9255 C.ar    1  UNL1        0.0906
      6 C          64.1534   85.3928   14.7672 C.ar    1  UNL1        0.0267
      7 C          63.8535   84.1465   13.9882 C.ar    1  UNL1        0.0371
      8 S          63.2766   84.5546   12.6650 S.2     1  UNL1       -0.0833
      9 C          63.2200   86.0530   12.6263 C.ar    1  UNL1        0.0648
     10 C          61.1195   85.4587    7.6780 C.ar    1  UNL1        0.2250
     11 C          62.5641   85.2508    8.0243 C.ar    1  UNL1        0.0578
     12 C          63.1060   85.7688    9.3236 C.ar    1  UNL1        0.0079
     13 C          62.2033   86.4947   10.2766 C.ar    1  UNL1        0.0376
     14 C          60.7586   86.7026    9.9303 C.ar    1  UNL1        0.1035
     15 N          60.2167   86.1846    8.6311 N.ar    1  UNL1       -0.2101
     16 C          61.4588   84.1439    5.4631 C.3     1  UNL1        0.2542
     17 O          60.5776   84.9407    6.3789 O.3     1  UNL1       -0.4561
     18 C          63.4208   90.4862   13.3726 C.3     1  UNL1        0.2209
     19 S          64.6639   91.0936   13.9522 S.O2    1  UNL1        0.0161
     20 O          65.2814   91.1335   12.5858 O.2     1  UNL1       -0.1682
     21 O          64.0463   91.0537   15.3186 O.2     1  UNL1       -0.1682
     22 C          65.9069   91.7010   14.5317 C.ar    1  UNL1        0.1070
     23 C          65.8510   92.4048   15.8551 C.ar    1  UNL1        0.0184
     24 C          67.0941   93.0123   16.4347 C.ar    1  UNL1        0.0022
     25 C          68.3931   92.9159   15.6907 C.ar    1  UNL1        0.0115
     26 C          68.4489   92.2120   14.3672 C.ar    1  UNL1        0.0590
     27 CL         69.7479   92.1157   13.6233 Cl      1  UNL1       -0.0822
     28 C          67.2059   91.6047   13.7878 C.ar    1  UNL1        0.0297
@<TRIPOS>BOND
     1    16    17    1
     2    17    10    1
     3    10    11   ar
     4    11    12   ar
     5    12    13   ar
     6    13     1    1
     7     1     2   ar
     8     2     3   ar
     9     3    18    1
    10    18    19    1
    11    19    20    2
    12    19    21    2
    13    19    22    1
    14    22    23   ar
    15    23    24   ar
    16    24    25   ar
    17    25    26   ar
    18    26    27    1
    19    26    28   ar
    20     3     4   ar
    21     4     5   ar
    22     5     6   ar
    23     6     7   ar
    24     7     8   ar
    25     8     9   ar
    26    13    14   ar
    27    14    15   ar
    28    15    10   ar
    29     9     1   ar
    30    28    22   ar
    31     9     5   ar
@<TRIPOS>MOLECULE
*****
 28 31 0 0 0
SMALL
GASTEIGER

@<TRIPOS>ATOM
      1 C          62.8187   87.9044   11.5720 C.ar    1  UNL1        0.0916
      2 N          63.0194   89.3909   11.5741 N.ar    1  UNL1       -0.2283
      3 C          63.7060   90.0534   12.7315 C.ar    1  UNL1        0.1633
      4 N          64.1919   89.2294   13.8869 N.ar    1  UNL1       -0.2283
      5 C          63.9912   87.7429   13.8849 C.ar    1  UNL1        0.0906
      6 C          64.3600   86.6790   14.8758 C.ar    1  UNL1        0.0267
      7 C          63.9014   85.3589   14.3308 C.ar    1  UNL1        0.0371
      8 S          63.2491   85.6070   13.0030 S.2     1  UNL1       -0.0833
      9 C          63.3046   87.0804   12.7274 C.ar    1  UNL1        0.0648
     10 C          60.7589   85.9169    8.0997 C.ar    1  UNL1        0.2250
     11 C          62.2274   85.7062    8.3211 C.ar    1  UNL1        0.0578
     12 C          62.9141   86.3687    9.4786 C.ar    1  UNL1        0.0079
     13 C          62.1321   87.2419   10.4146 C.ar    1  UNL1        0.0376
     14 C          60.6635   87.4526   10.1931 C.ar    1  UNL1        0.1035
     15 N          59.9769   86.7902    9.0358 N.ar    1  UNL1       -0.2101
     16 C          60.8307   84.3030    6.0650 C.3     1  UNL1        0.2542
     17 O          60.0723   85.2545    6.9423 O.3     1  UNL1       -0.4561
     18 C          63.9066   91.5400   12.7335 C.3     1  UNL1        0.2209
     19 S          64.9622   92.1555   11.8635 S.O2    1  UNL1        0.0161
     20 O          65.8533   92.3175   13.0592 O.2     1  UNL1       -0.1682
     21 O          64.0710   91.9935   10.6678 O.2     1  UNL1       -0.1682
     22 C          66.0177   92.7710   10.9934 C.ar    1  UNL1        0.1070
     23 C          67.2408   91.9837   10.6273 C.ar    1  UNL1        0.0184
     24 C          68.2964   92.5992    9.7572 C.ar    1  UNL1        0.0022
     25 C          68.1287   94.0021    9.2532 C.ar    1  UNL1        0.0115
     26 C          66.9055   94.7894    9.6194 C.ar    1  UNL1        0.0590
     27 CL         66.7379   96.1922    9.1155 Cl      1  UNL1       -0.0822
     28 C          65.8501   94.1738   10.4895 C.ar    1  UNL1        0.0297
@<TRIPOS>BOND
     1    16    17    1
     2    17    10    1
     3    10    11   ar
     4    11    12   ar
     5    12    13   ar
     6    13     1    1
     7     1     2   ar
     8     2     3   ar
     9     3    18    1
    10    18    19    1
    11    19    20    2
    12    19    21    2
    13    19    22    1
    14    22    23   ar
    15    23    24   ar
    16    24    25   ar
    17    25    26   ar
    18    26    27    1
    19    26    28   ar
    20     3     4   ar
    21     4     5   ar
    22     5     6   ar
    23     6     7   ar
    24     7     8   ar
    25     8     9   ar
    26    13    14   ar
    27    14    15   ar
    28    15    10   ar
    29     9     1   ar
    30    28    22   ar
    31     9     5   ar
@<TRIPOS>MOLECULE
*****
 28 31 0 0 0
SMALL
GASTEIGER

@<TRIPOS>ATOM
      1 C          63.0810   88.4338   12.3484 C.ar    1  UNL1        0.0916
      2 N          63.6655   89.7832   12.6443 N.ar    1  UNL1       -0.2283
      3 C          64.6038   89.9568   13.8015 C.ar    1  UNL1        0.1633
      4 N          64.9576   88.7809   14.6631 N.ar    1  UNL1       -0.2283
      5 C          64.3731   87.4315   14.3673 C.ar    1  UNL1        0.0906
      6 C          64.5364   86.0986   15.0356 C.ar    1  UNL1        0.0267
      7 C          63.6990   85.1013   14.2913 C.ar    1  UNL1        0.0371
      8 S          63.0182   85.8178   13.1630 S.2     1  UNL1       -0.0833
      9 C          63.4348   87.2580   13.2100 C.ar    1  UNL1        0.0648
     10 C          60.2660   87.9133    8.8764 C.ar    1  UNL1        0.2250
     11 C          61.4939   87.0582    8.9811 C.ar    1  UNL1        0.0578
     12 C          62.4323   87.2316   10.1385 C.ar    1  UNL1        0.0079
     13 C          62.1427   88.2603   11.1911 C.ar    1  UNL1        0.0376
     14 C          60.9147   89.1155   11.0863 C.ar    1  UNL1        0.1035
     15 N          59.9765   88.9420    9.9290 N.ar    1  UNL1       -0.2101
     16 C          59.0795   88.8806    6.7772 C.3     1  UNL1        0.2542
     17 O          59.3277   87.7398    7.7191 O.3     1  UNL1       -0.4561
     18 C          65.1883   91.3062   14.0974 C.3     1  UNL1        0.2209
     19 S          65.7798   92.1266   12.9896 S.O2    1  UNL1        0.0161
     20 O          64.4014   92.4621   12.5021 O.2     1  UNL1       -0.1682
     21 O          67.1581   91.7911   13.4770 O.2     1  UNL1       -0.1682
     22 C          66.3712   92.9470   11.8818 C.ar    1  UNL1        0.1070
     23 C          66.1066   94.4220   11.8173 C.ar    1  UNL1        0.0184
     24 C          66.6981   95.2424   10.7095 C.ar    1  UNL1        0.0022
     25 C          67.5541   94.5876    9.6661 C.ar    1  UNL1        0.0115
     26 C          67.8186   93.1125    9.7306 C.ar    1  UNL1        0.0590
     27 CL         68.6746   92.4578    8.6872 Cl      1  UNL1       -0.0822
     28 C          67.2272   92.2923   10.8384 C.ar    1  UNL1        0.0297
@<TRIPOS>BOND
     1    16    17    1
     2    17    10    1
     3    10    11   ar
     4    11    12   ar
     5    12    13   ar
     6    13     1    1
     7     1     2   ar
     8     2     3   ar
     9     3    18    1
    10    18    19    1
    11    19    20    2
    12    19    21    2
    13    19    22    1
    14    22    23   ar
    15    23    24   ar
    16    24    25   ar
    17    25    26   ar
    18    26    27    1
    19    26    28   ar
    20     3     4   ar
    21     4     5   ar
    22     5     6   ar
    23     6     7   ar
    24     7     8   ar
    25     8     9   ar
    26    13    14   ar
    27    14    15   ar
    28    15    10   ar
    29     9     1   ar
    30    28    22   ar
    31     9     5   ar
@<TRIPOS>MOLECULE
*****
 28 31 0 0 0
SMALL
GASTEIGER

@<TRIPOS>ATOM
      1 C          61.8165   86.9203   10.5222 C.ar    1  UNL1        0.0916
      2 N          62.1755   87.9174   11.5838 N.ar    1  UNL1       -0.2283
      3 C          61.6217   89.3100   11.5229 C.ar    1  UNL1        0.1633
      4 N          60.7087   89.7057   10.4004 N.ar    1  UNL1       -0.2283
      5 C          60.3496   88.7086    9.3388 C.ar    1  UNL1        0.0906
      6 C          59.4800   88.8087    8.1208 C.ar    1  UNL1        0.0267
      7 C          59.4964   87.4779    7.4289 C.ar    1  UNL1        0.0371
      8 S          60.3761   86.5553    8.2193 S.2     1  UNL1       -0.0833
      9 C          60.9035   87.3159    9.3998 C.ar    1  UNL1        0.0648
     10 C          63.4781   82.7423   10.7050 C.ar    1  UNL1        0.2250
     11 C          62.7400   83.3080   11.8819 C.ar    1  UNL1        0.0578
     12 C          62.1861   84.7007   11.8210 C.ar    1  UNL1        0.0079
     13 C          62.3703   85.5276   10.5832 C.ar    1  UNL1        0.0376
     14 C          63.1085   84.9619    9.4062 C.ar    1  UNL1        0.1035
     15 N          63.6623   83.5693    9.4671 N.ar    1  UNL1       -0.2101
     16 C          63.1741   80.1835   10.3731 C.3     1  UNL1        0.2542
     17 O          64.0319   81.3497   10.7659 O.3     1  UNL1       -0.4561
     18 C          61.9809   90.3071   12.5845 C.3     1  UNL1        0.2209
     19 S          63.3608   90.8936   12.6265 S.O2    1  UNL1        0.0161
     20 O          63.2589   91.0264   14.1172 O.2     1  UNL1       -0.1682
     21 O          63.4626   90.7608   11.1359 O.2     1  UNL1       -0.1682
     22 C          64.7407   91.4802   12.6685 C.ar    1  UNL1        0.1070
     23 C          65.6187   91.2471   13.8622 C.ar    1  UNL1        0.0184
     24 C          66.9986   91.8337   13.9042 C.ar    1  UNL1        0.0022
     25 C          67.5006   92.6533   12.7525 C.ar    1  UNL1        0.0115
     26 C          66.6225   92.8864   11.5588 C.ar    1  UNL1        0.0590
     27 CL         67.1245   93.7060   10.4072 Cl      1  UNL1       -0.0822
     28 C          65.2427   92.2998   11.5169 C.ar    1  UNL1        0.0297
@<TRIPOS>BOND
     1    16    17    1
     2    17    10    1
     3    10    11   ar
     4    11    12   ar
     5    12    13   ar
     6    13     1    1
     7     1     2   ar
     8     2     3   ar
     9     3    18    1
    10    18    19    1
    11    19    20    2
    12    19    21    2
    13    19    22    1
    14    22    23   ar
    15    23    24   ar
    16    24    25   ar
    17    25    26   ar
    18    26    27    1
    19    26    28   ar
    20     3     4   ar
    21     4     5   ar
    22     5     6   ar
    23     6     7   ar
    24     7     8   ar
    25     8     9   ar
    26    13    14   ar
    27    14    15   ar
    28    15    10   ar
    29     9     1   ar
    30    28    22   ar
    31     9     5   ar
@<TRIPOS>MOLECULE
*****
 28 31 0 0 0
SMALL
GASTEIGER

@<TRIPOS>ATOM
      1 C          62.9692   85.8399   12.1809 C.ar    1  UNL1        0.0916
      2 N          63.2065   87.2142   12.7329 N.ar    1  UNL1       -0.2283
      3 C          63.6913   87.3830   14.1422 C.ar    1  UNL1        0.1633
      4 N          63.9388   86.1774   14.9998 N.ar    1  UNL1       -0.2283
      5 C          63.7014   84.8030   14.4478 C.ar    1  UNL1        0.0906
      6 C          63.8568   83.4385   15.0511 C.ar    1  UNL1        0.0267
      7 C          63.4680   82.4264   14.0145 C.ar    1  UNL1        0.0371
      8 S          63.0724   83.1654   12.7706 S.2     1  UNL1       -0.0833
      9 C          63.2166   84.6342   13.0383 C.ar    1  UNL1        0.0648
     10 C          61.5146   85.3336    7.9526 C.ar    1  UNL1        0.2250
     11 C          62.8380   84.7598    8.3643 C.ar    1  UNL1        0.0578
     12 C          63.3229   84.9285    9.7737 C.ar    1  UNL1        0.0079
     13 C          62.4843   85.6711   10.7715 C.ar    1  UNL1        0.0376
     14 C          61.1609   86.2450   10.3598 C.ar    1  UNL1        0.1035
     15 N          60.6761   86.0762    8.9504 N.ar    1  UNL1       -0.2101
     16 C          61.7777   84.2761    5.5941 C.3     1  UNL1        0.2542
     17 O          61.0298   85.1649    6.5433 O.3     1  UNL1       -0.4561
     18 C          63.9286   88.7575   14.6942 C.3     1  UNL1        0.2209
     19 S          64.2247   89.8978   13.7658 S.O2    1  UNL1        0.0161
     20 O          65.5862   90.0431   14.3784 O.2     1  UNL1       -0.1682
     21 O          62.8633   89.7525   13.1531 O.2     1  UNL1       -0.1682
     22 C          64.5208   91.0381   12.8373 C.ar    1  UNL1        0.1070
     23 C          63.9204   91.0615   11.4629 C.ar    1  UNL1        0.0184
     24 C          64.2165   92.2018   10.5344 C.ar    1  UNL1        0.0022
     25 C          65.1131   93.3187   10.9803 C.ar    1  UNL1        0.0115
     26 C          65.7135   93.2953   12.3548 C.ar    1  UNL1        0.0590
     27 CL         66.6100   94.4122   12.8007 Cl      1  UNL1       -0.0822
     28 C          65.4173   92.1550   13.2832 C.ar    1  UNL1        0.0297
@<TRIPOS>BOND
     1    16    17    1
     2    17    10    1
     3    10    11   ar
     4    11    12   ar
     5    12    13   ar
     6    13     1    1
     7     1     2   ar
     8     2     3   ar
     9     3    18    1
    10    18    19    1
    11    19    20    2
    12    19    21    2
    13    19    22    1
    14    22    23   ar
    15    23    24   ar
    16    24    25   ar
    17    25    26   ar
    18    26    27    1
    19    26    28   ar
    20     3     4   ar
    21     4     5   ar
    22     5     6   ar
    23     6     7   ar
    24     7     8   ar
    25     8     9   ar
    26    13    14   ar
    27    14    15   ar
    28    15    10   ar
    29     9     1   ar
    30    28    22   ar
    31     9     5   ar
