@<TRIPOS>MOLECULE
*****
 44 46 0 0 0
SMALL
GASTEIGER

@<TRIPOS>ATOM
      1 C          61.9695   88.6459   10.9163 C.ar    1  UNL1        0.0539
      2 S          61.2533   89.2876    9.7651 S.2     1  UNL1       -0.0619
      3 C          60.4559   88.2268    9.0659 C.ar    1  UNL1        0.1641
      4 N          60.6792   86.9295    9.7850 N.ar    1  UNL1       -0.2291
      5 C          61.6147   87.1885   10.9286 C.ar    1  UNL1        0.1414
      6 C          62.1086   86.1691   11.9118 C.2     1  UNL1        0.2674
      7 O          61.8420   86.3495   13.3770 O.2     1  UNL1       -0.2682
      8 N          62.8692   84.9694   11.4302 N.am    1  UNL1       -0.2710
      9 C          63.2100   84.6560   10.0034 C.3     1  UNL1        0.1603
     10 C          63.9740   83.3652    9.9821 C.3     1  UNL1        0.2835
     11 F          64.0037   83.5896    8.4992 F       1  UNL1       -0.2024
     12 F          64.7441   82.1214    9.6507 F       1  UNL1       -0.2024
     13 C          64.1052   82.8809   11.3956 C.3     1  UNL1        0.0881
     14 C          63.4224   83.8723   12.2905 C.3     1  UNL1        0.0814
     15 C          63.3122   83.7823   13.7838 C.3     1  UNL1        0.0217
     16 C          64.7025   90.7276   13.8227 C.ar    1  UNL1        0.1333
     17 C          64.1107   89.3945   14.1728 C.ar    1  UNL1        0.0208
     18 C          63.1997   88.7006   13.2040 C.ar    1  UNL1        0.0028
     19 C          62.8805   89.3398   11.8851 C.ar    1  UNL1        0.0191
     20 C          63.4723   90.6729   11.5350 C.ar    1  UNL1        0.0700
     21 CL         63.1531   91.3122   10.2161 Cl      1  UNL1       -0.0813
     22 C          64.3833   91.3668   12.5038 C.ar    1  UNL1        0.0867
     23 CL         64.9751   92.6999   12.1537 Cl      1  UNL1       -0.0800
     24 S          65.6135   91.4215   14.7915 S.O2    1  UNL1        0.0613
     25 O          66.8051   90.8833   14.0564 O.2     1  UNL1       -0.1530
     26 O          64.4218   91.9596   15.5266 O.2     1  UNL1       -0.1530
     27 N          66.5245   92.1153   15.7603 N.3     1  UNL1       -0.1723
     28 H          65.9368   92.4701   16.5148 H       1  UNL1        0.1491
     29 C          66.8811   94.1779   14.2212 C.3     1  UNL1        0.0278
     30 C          67.3765   93.2608   15.3000 C.3     1  UNL1        0.1701
     31 C          68.7238   93.4892   15.9183 C.3     1  UNL1        0.4118
     32 F          70.0712   93.7177   16.5367 F       1  UNL1       -0.1685
     33 F          68.9267   92.0068   16.0240 F       1  UNL1       -0.1685
     34 F          68.5210   94.9717   15.8127 F       1  UNL1       -0.1685
     35 C          59.5876   88.4280    7.8594 C.2     1  UNL1        0.2699
     36 O          58.6213   87.3585    7.4440 O.2     1  UNL1       -0.2679
     37 N          59.6855   89.6986    7.0684 N.am    1  UNL1       -0.2969
     38 H          60.3197   90.4005    7.3410 H       1  UNL1        0.1499
     39 C          58.8172   89.8998    5.8619 C.3     1  UNL1        0.1166
     40 C          58.8795   91.1905    5.0999 C.3     1  UNL1        0.1064
     41 C          60.3766   91.1013    5.0712 C.3     1  UNL1        0.0311
     42 C          57.3824   91.2795    5.1285 C.3     1  UNL1        0.0311
     43 O          58.9417   92.4810    4.3379 O.3     1  UNL1       -0.3851
     44 H          59.8679   92.7048    4.1562 H       1  UNL1        0.2103
@<TRIPOS>BOND
     1    30    29    1
     2    30    27    1
     3    27    24    1
     4    24    25    2
     5    24    26    2
     6    24    16    1
     7    16    17   ar
     8    17    18   ar
     9    18    19   ar
    10    19     1    1
    11     1     2   ar
    12     2     3   ar
    13     3    35    1
    14    35    36    2
    15    35    37   am
    16    37    39    1
    17    39    40    1
    18    40    41    1
    19    40    42    1
    20    40    43    1
    21     3     4   ar
    22     4     5   ar
    23     5     6    1
    24     6     7    2
    25     6     8   am
    26     8     9    1
    27     9    10    1
    28    10    11    1
    29    10    12    1
    30    10    13    1
    31    13    14    1
    32    14    15    1
    33    19    20   ar
    34    20    21    1
    35    20    22   ar
    36    22    23    1
    37    30    31    1
    38    31    32    1
    39    31    33    1
    40    31    34    1
    41    22    16   ar
    42     5     1   ar
    43    14     8    1
    44    27    28    1
    45    37    38    1
    46    43    44    1
@<TRIPOS>MOLECULE
*****
 44 46 0 0 0
SMALL
GASTEIGER

@<TRIPOS>ATOM
      1 C          63.2418   88.8833   12.0678 C.ar    1  UNL1        0.0539
      2 S          64.2662   89.8967   12.4843 S.2     1  UNL1       -0.0619
      3 C          63.9867   91.1702   11.7427 C.ar    1  UNL1        0.1641
      4 N          62.7895   90.9440   10.8679 N.ar    1  UNL1       -0.2291
      5 C          62.3291   89.5306   11.0688 C.ar    1  UNL1        0.1414
      6 C          61.1610   88.8789   10.3898 C.2     1  UNL1        0.2674
      7 O          59.7714   89.3880   10.6348 O.2     1  UNL1       -0.2682
      8 N          61.3824   87.7182    9.4659 N.am    1  UNL1       -0.2710
      9 C          62.7073   87.1025    9.1256 C.3     1  UNL1        0.1603
     10 C          62.4615   85.9731    8.1694 C.3     1  UNL1        0.2835
     11 F          63.9520   85.8122    8.2224 F       1  UNL1       -0.2024
     12 F          62.5275   84.8101    7.2244 F       1  UNL1       -0.2024
     13 C          60.9850   85.8908    7.9189 C.3     1  UNL1        0.0881
     14 C          60.3181   86.9693    8.7202 C.3     1  UNL1        0.0814
     15 C          58.8452   87.2496    8.7673 C.3     1  UNL1        0.0217
     16 C          62.9565   84.6455   13.5542 C.ar    1  UNL1        0.1333
     17 C          62.3288   85.0252   12.2459 C.ar    1  UNL1        0.0208
     18 C          62.4239   86.4378   11.7504 C.ar    1  UNL1        0.0028
     19 C          63.1467   87.4707   12.5632 C.ar    1  UNL1        0.0191
     20 C          63.7743   87.0909   13.8716 C.ar    1  UNL1        0.0700
     21 CL         64.4971   88.1238   14.6845 Cl      1  UNL1       -0.0813
     22 C          63.6792   85.6783   14.3671 C.ar    1  UNL1        0.0867
     23 CL         64.3069   85.2986   15.6755 Cl      1  UNL1       -0.0800
     24 S          62.8614   83.2328   14.0497 S.O2    1  UNL1        0.0613
     25 O          61.6544   83.5989   14.8617 O.2     1  UNL1       -0.1530
     26 O          64.0683   82.8668   13.2377 O.2     1  UNL1       -0.1530
     27 N          62.7663   81.8202   14.5452 N.3     1  UNL1       -0.1723
     28 H          63.7094   81.4329   14.5134 H       1  UNL1        0.1491
     29 C          60.4494   80.6717   14.2939 C.3     1  UNL1        0.0278
     30 C          61.8716   80.8393   13.8472 C.3     1  UNL1        0.1701
     31 C          62.3989   80.0258   12.7026 C.3     1  UNL1        0.4118
     32 F          62.9263   79.2124   11.5579 F       1  UNL1       -0.1685
     33 F          62.1514   81.1755   11.7715 F       1  UNL1       -0.1685
     34 F          62.6465   78.8762   13.6337 F       1  UNL1       -0.1685
     35 C          64.7674   92.4460   11.8561 C.2     1  UNL1        0.2699
     36 O          65.2531   92.9115   13.1968 O.2     1  UNL1       -0.2679
     37 N          65.0624   93.2564   10.6288 N.am    1  UNL1       -0.2969
     38 H          64.7436   92.9509    9.7489 H       1  UNL1        0.1499
     39 C          65.8430   94.5322   10.7422 C.3     1  UNL1        0.1166
     40 C          66.9789   94.8026    9.8004 C.3     1  UNL1        0.1064
     41 C          67.2919   93.3363    9.7569 C.3     1  UNL1        0.0311
     42 C          66.6657   96.2690    9.8440 C.3     1  UNL1        0.0311
     43 O          68.1146   95.0731    8.8587 O.3     1  UNL1       -0.3851
     44 H          68.5503   94.2374    8.6291 H       1  UNL1        0.2103
@<TRIPOS>BOND
     1    30    29    1
     2    30    27    1
     3    27    24    1
     4    24    25    2
     5    24    26    2
     6    24    16    1
     7    16    17   ar
     8    17    18   ar
     9    18    19   ar
    10    19     1    1
    11     1     2   ar
    12     2     3   ar
    13     3    35    1
    14    35    36    2
    15    35    37   am
    16    37    39    1
    17    39    40    1
    18    40    41    1
    19    40    42    1
    20    40    43    1
    21     3     4   ar
    22     4     5   ar
    23     5     6    1
    24     6     7    2
    25     6     8   am
    26     8     9    1
    27     9    10    1
    28    10    11    1
    29    10    12    1
    30    10    13    1
    31    13    14    1
    32    14    15    1
    33    19    20   ar
    34    20    21    1
    35    20    22   ar
    36    22    23    1
    37    30    31    1
    38    31    32    1
    39    31    33    1
    40    31    34    1
    41    22    16   ar
    42     5     1   ar
    43    14     8    1
    44    27    28    1
    45    37    38    1
    46    43    44    1
@<TRIPOS>MOLECULE
*****
 44 46 0 0 0
SMALL
GASTEIGER

@<TRIPOS>ATOM
      1 C          63.9685   89.2270   13.4915 C.ar    1  UNL1        0.0539
      2 S          65.2339   90.0319   13.4608 S.2     1  UNL1       -0.0619
      3 C          64.8632   91.4708   13.2557 C.ar    1  UNL1        0.1641
      4 N          63.3687   91.5553   13.1596 N.ar    1  UNL1       -0.2291
      5 C          62.8157   90.1686   13.3053 C.ar    1  UNL1        0.1414
      6 C          61.3647   89.7899   13.2709 C.2     1  UNL1        0.2674
      7 O          60.6050   89.6136   14.5523 O.2     1  UNL1       -0.2682
      8 N          60.6734   89.5875   11.9553 N.am    1  UNL1       -0.2710
      9 C          61.2996   89.7277   10.5995 C.3     1  UNL1        0.1603
     10 C          60.2477   89.4362    9.5706 C.3     1  UNL1        0.2835
     11 F          61.3524   89.7075    8.5928 F       1  UNL1       -0.2024
     12 F          59.4267   89.2014    8.3373 F       1  UNL1       -0.2024
     13 C          58.9714   89.1158   10.2905 C.3     1  UNL1        0.0881
     14 C          59.2345   89.2093   11.7643 C.3     1  UNL1        0.0814
     15 C          58.2341   88.9671   12.8555 C.3     1  UNL1        0.0217
     16 C          63.6810   84.7704   14.0447 C.ar    1  UNL1        0.1333
     17 C          64.2626   85.6251   15.1315 C.ar    1  UNL1        0.0208
     18 C          64.3584   87.1107   14.9471 C.ar    1  UNL1        0.0028
     19 C          63.8726   87.7415   13.6759 C.ar    1  UNL1        0.0191
     20 C          63.2910   86.8868   12.5891 C.ar    1  UNL1        0.0700
     21 CL         62.8052   87.5176   11.3178 Cl      1  UNL1       -0.0813
     22 C          63.1952   85.4013   12.7735 C.ar    1  UNL1        0.0867
     23 CL         62.6136   84.5465   11.6866 Cl      1  UNL1       -0.0800
     24 S          63.5851   83.2849   14.2292 S.O2    1  UNL1        0.0613
     25 O          62.4992   83.4811   15.2451 O.2     1  UNL1       -0.1530
     26 O          64.6711   83.0887   13.2132 O.2     1  UNL1       -0.1530
     27 N          63.4893   81.7994   14.4136 N.3     1  UNL1       -0.1723
     28 H          64.3609   81.4023   14.0628 H       1  UNL1        0.1491
     29 C          60.9890   81.0972   14.3406 C.3     1  UNL1        0.0278
     30 C          62.3734   81.0337   13.7667 C.3     1  UNL1        0.1701
     31 C          62.6419   80.2046   12.5458 C.3     1  UNL1        0.4118
     32 F          62.9104   79.3755   11.3250 F       1  UNL1       -0.1685
     33 F          62.7211   78.9736   13.3992 F       1  UNL1       -0.1685
     34 F          62.5628   81.4356   11.6924 F       1  UNL1       -0.1685
     35 C          65.8192   92.6230   13.1630 C.2     1  UNL1        0.2699
     36 O          66.9995   92.6944   14.0860 O.2     1  UNL1       -0.2679
     37 N          65.5949   93.7037   12.1473 N.am    1  UNL1       -0.2969
     38 H          64.8203   93.6569   11.5415 H       1  UNL1        0.1499
     39 C          66.5510   94.8558   12.0546 C.3     1  UNL1        0.1166
     40 C          66.5827   95.7066   10.8195 C.3     1  UNL1        0.1064
     41 C          67.1997   94.5732   10.0548 C.3     1  UNL1        0.0311
     42 C          65.9656   96.8399   11.5843 C.3     1  UNL1        0.0311
     43 O          66.6143   96.5573    9.5845 O.3     1  UNL1       -0.3851
     44 H          66.9974   96.0497    8.8520 H       1  UNL1        0.2103
@<TRIPOS>BOND
     1    30    29    1
     2    30    27    1
     3    27    24    1
     4    24    25    2
     5    24    26    2
     6    24    16    1
     7    16    17   ar
     8    17    18   ar
     9    18    19   ar
    10    19     1    1
    11     1     2   ar
    12     2     3   ar
    13     3    35    1
    14    35    36    2
    15    35    37   am
    16    37    39    1
    17    39    40    1
    18    40    41    1
    19    40    42    1
    20    40    43    1
    21     3     4   ar
    22     4     5   ar
    23     5     6    1
    24     6     7    2
    25     6     8   am
    26     8     9    1
    27     9    10    1
    28    10    11    1
    29    10    12    1
    30    10    13    1
    31    13    14    1
    32    14    15    1
    33    19    20   ar
    34    20    21    1
    35    20    22   ar
    36    22    23    1
    37    30    31    1
    38    31    32    1
    39    31    33    1
    40    31    34    1
    41    22    16   ar
    42     5     1   ar
    43    14     8    1
    44    27    28    1
    45    37    38    1
    46    43    44    1
@<TRIPOS>MOLECULE
*****
 44 46 0 0 0
SMALL
GASTEIGER

@<TRIPOS>ATOM
      1 C          61.4819   94.0253    0.5431 C.ar    1  UNL1        0.0539
      2 S          62.0710   93.0817    1.5494 S.2     1  UNL1       -0.0619
      3 C          61.0165   92.7767    2.5717 C.ar    1  UNL1        0.1641
      4 N          59.7757   93.5317    2.1972 N.ar    1  UNL1       -0.2291
      5 C          60.0634   94.3034    0.9435 C.ar    1  UNL1        0.1414
      6 C          59.1013   95.1965    0.2176 C.2     1  UNL1        0.2674
      7 O          59.2755   96.6855    0.2688 O.2     1  UNL1       -0.2682
      8 N          57.9651   94.6007   -0.5595 N.am    1  UNL1       -0.2710
      9 C          57.6653   93.1378   -0.7011 C.3     1  UNL1        0.1603
     10 C          56.4440   92.9960   -1.5606 C.3     1  UNL1        0.2835
     11 F          56.6527   91.5269   -1.3412 F       1  UNL1       -0.2024
     12 F          55.2665   92.5471   -2.3742 F       1  UNL1       -0.2024
     13 C          55.9892   94.3713   -1.9501 C.3     1  UNL1        0.0881
     14 C          56.9293   95.3630   -1.3314 C.3     1  UNL1        0.0814
     15 C          56.8477   96.8551   -1.4617 C.3     1  UNL1        0.0217
     16 C          63.5988   95.7235   -3.0465 C.ar    1  UNL1        0.1333
     17 C          63.8061   96.3373   -1.6936 C.ar    1  UNL1        0.0208
     18 C          63.1005   95.7712   -0.4971 C.ar    1  UNL1        0.0028
     19 C          62.1875   94.5914   -0.6534 C.ar    1  UNL1        0.0191
     20 C          61.9802   93.9775   -2.0062 C.ar    1  UNL1        0.0700
     21 CL         61.0673   92.7976   -2.1626 Cl      1  UNL1       -0.0813
     22 C          62.6859   94.5436   -3.2028 C.ar    1  UNL1        0.0867
     23 CL         62.4785   93.9297   -4.5557 Cl      1  UNL1       -0.0800
     24 S          64.3044   96.2895   -4.2430 S.O2    1  UNL1        0.0613
     25 O          62.9917   96.7632   -4.7930 O.2     1  UNL1       -0.1530
     26 O          65.6170   95.8158   -3.6930 O.2     1  UNL1       -0.1530
     27 N          65.0100   96.8556   -5.4395 N.3     1  UNL1       -0.1723
     28 H          64.3148   97.3803   -5.9704 H       1  UNL1        0.1491
     29 C          67.0987   96.2275   -6.8513 C.3     1  UNL1        0.0278
     30 C          65.6944   95.9390   -6.4098 C.3     1  UNL1        0.1701
     31 C          64.9746   94.7339   -6.9385 C.3     1  UNL1        0.4118
     32 F          64.2548   93.5288   -7.4673 F       1  UNL1       -0.1685
     33 F          63.9405   95.6246   -7.5609 F       1  UNL1       -0.1685
     34 F          66.0087   93.8432   -6.3162 F       1  UNL1       -0.1685
     35 C          61.1750   91.8749    3.7598 C.2     1  UNL1        0.2699
     36 O          62.5099   91.2616    4.0632 O.2     1  UNL1       -0.2679
     37 N          59.9986   91.5863    4.6446 N.am    1  UNL1       -0.2969
     38 H          59.1225   91.9888    4.4455 H       1  UNL1        0.1499
     39 C          60.1571   90.6845    5.8327 C.3     1  UNL1        0.1166
     40 C          58.9848   89.8968    6.3381 C.3     1  UNL1        0.1064
     41 C          59.9085   89.0529    7.1654 C.3     1  UNL1        0.0311
     42 C          58.0611   90.7408    5.5106 C.3     1  UNL1        0.0311
     43 O          57.8125   89.1091    6.8433 O.3     1  UNL1       -0.3851
     44 H          58.1229   88.4248    7.4567 H       1  UNL1        0.2103
@<TRIPOS>BOND
     1    30    29    1
     2    30    27    1
     3    27    24    1
     4    24    25    2
     5    24    26    2
     6    24    16    1
     7    16    17   ar
     8    17    18   ar
     9    18    19   ar
    10    19     1    1
    11     1     2   ar
    12     2     3   ar
    13     3    35    1
    14    35    36    2
    15    35    37   am
    16    37    39    1
    17    39    40    1
    18    40    41    1
    19    40    42    1
    20    40    43    1
    21     3     4   ar
    22     4     5   ar
    23     5     6    1
    24     6     7    2
    25     6     8   am
    26     8     9    1
    27     9    10    1
    28    10    11    1
    29    10    12    1
    30    10    13    1
    31    13    14    1
    32    14    15    1
    33    19    20   ar
    34    20    21    1
    35    20    22   ar
    36    22    23    1
    37    30    31    1
    38    31    32    1
    39    31    33    1
    40    31    34    1
    41    22    16   ar
    42     5     1   ar
    43    14     8    1
    44    27    28    1
    45    37    38    1
    46    43    44    1
@<TRIPOS>MOLECULE
*****
 44 46 0 0 0
SMALL
GASTEIGER

@<TRIPOS>ATOM
      1 C          64.0194   89.0770   14.3893 C.ar    1  UNL1        0.0539
      2 S          65.2694   89.8469   14.6971 S.2     1  UNL1       -0.0619
      3 C          64.9537   91.3088   14.5818 C.ar    1  UNL1        0.1641
      4 N          63.5086   91.4424   14.2027 N.ar    1  UNL1       -0.2291
      5 C          62.9312   90.0631   14.0838 C.ar    1  UNL1        0.1414
      6 C          61.5142   89.7286   13.7227 C.2     1  UNL1        0.2674
      7 O          60.5226   89.4029   14.8001 O.2     1  UNL1       -0.2682
      8 N          61.0888   89.7199   12.2844 N.am    1  UNL1       -0.2710
      9 C          61.9638   90.0231   11.1044 C.3     1  UNL1        0.1603
     10 C          61.1294   89.8969    9.8641 C.3     1  UNL1        0.2835
     11 F          62.4012   90.2680    9.1605 F       1  UNL1       -0.2024
     12 F          60.5611   89.8484    8.4768 F       1  UNL1       -0.2024
     13 C          59.7389   89.5158   10.2777 C.3     1  UNL1        0.0881
     14 C          59.7138   89.4063   11.7735 C.3     1  UNL1        0.0814
     15 C          58.5227   89.0465   12.6112 C.3     1  UNL1        0.0217
     16 C          63.6067   84.5960   14.3835 C.ar    1  UNL1        0.1333
     17 C          63.9970   85.3116   15.6427 C.ar    1  UNL1        0.0208
     18 C          64.1346   86.8053   15.6446 C.ar    1  UNL1        0.0028
     19 C          63.8819   87.5834   14.3874 C.ar    1  UNL1        0.0191
     20 C          63.4916   86.8678   13.1282 C.ar    1  UNL1        0.0700
     21 CL         63.2388   87.6458   11.8709 Cl      1  UNL1       -0.0813
     22 C          63.3540   85.3741   13.1263 C.ar    1  UNL1        0.0867
     23 CL         62.9637   84.6585   11.8670 Cl      1  UNL1       -0.0800
     24 S          63.4691   83.1023   14.3816 S.O2    1  UNL1        0.0613
     25 O          62.2865   83.2101   15.2980 O.2     1  UNL1       -0.1530
     26 O          64.6517   82.9946   13.4652 O.2     1  UNL1       -0.1530
     27 N          63.3315   81.6087   14.3797 N.3     1  UNL1       -0.1723
     28 H          64.2197   81.2316   14.0491 H       1  UNL1        0.1491
     29 C          60.8596   80.8559   14.1092 C.3     1  UNL1        0.0278
     30 C          62.2541   80.9558   13.5656 C.3     1  UNL1        0.1701
     31 C          62.5711   80.4027   12.2078 C.3     1  UNL1        0.4118
     32 F          62.8880   79.8496   10.8500 F       1  UNL1       -0.1685
     33 F          62.7237   79.0335   12.8011 F       1  UNL1       -0.1685
     34 F          62.4184   81.7719   11.6144 F       1  UNL1       -0.1685
     35 C          65.9145   92.4387   14.8061 C.2     1  UNL1        0.2699
     36 O          65.8742   93.6454   13.9161 O.2     1  UNL1       -0.2679
     37 N          66.9156   92.3617   15.9205 N.am    1  UNL1       -0.2969
     38 H          66.9421   91.5697   16.5046 H       1  UNL1        0.1499
     39 C          67.8764   93.4916   16.1448 C.3     1  UNL1        0.1166
     40 C          69.2103   93.4892   15.4585 C.3     1  UNL1        0.1064
     41 C          68.8863   92.1648   14.8333 C.3     1  UNL1        0.0311
     42 C          69.5343   94.8137   16.0838 C.3     1  UNL1        0.0311
     43 O          70.5441   93.4869   14.7723 O.3     1  UNL1       -0.3851
     44 H          70.6341   92.6789   14.2432 H       1  UNL1        0.2103
@<TRIPOS>BOND
     1    30    29    1
     2    30    27    1
     3    27    24    1
     4    24    25    2
     5    24    26    2
     6    24    16    1
     7    16    17   ar
     8    17    18   ar
     9    18    19   ar
    10    19     1    1
    11     1     2   ar
    12     2     3   ar
    13     3    35    1
    14    35    36    2
    15    35    37   am
    16    37    39    1
    17    39    40    1
    18    40    41    1
    19    40    42    1
    20    40    43    1
    21     3     4   ar
    22     4     5   ar
    23     5     6    1
    24     6     7    2
    25     6     8   am
    26     8     9    1
    27     9    10    1
    28    10    11    1
    29    10    12    1
    30    10    13    1
    31    13    14    1
    32    14    15    1
    33    19    20   ar
    34    20    21    1
    35    20    22   ar
    36    22    23    1
    37    30    31    1
    38    31    32    1
    39    31    33    1
    40    31    34    1
    41    22    16   ar
    42     5     1   ar
    43    14     8    1
    44    27    28    1
    45    37    38    1
    46    43    44    1
@<TRIPOS>MOLECULE
*****
 44 46 0 0 0
SMALL
GASTEIGER

@<TRIPOS>ATOM
      1 C          64.0641   89.1899   13.3748 C.ar    1  UNL1        0.0539
      2 S          65.0020   90.0709   14.1456 S.2     1  UNL1       -0.0619
      3 C          65.0116   91.4213   13.4926 C.ar    1  UNL1        0.1641
      4 N          64.0798   91.3748   12.3181 N.ar    1  UNL1       -0.2291
      5 C          63.4942   89.9957   12.2453 C.ar    1  UNL1        0.1414
      6 C          62.5112   89.5081   11.2225 C.2     1  UNL1        0.2674
      7 O          62.9530   89.2785    9.8075 O.2     1  UNL1       -0.2682
      8 N          61.0866   89.2501   11.6147 N.am    1  UNL1       -0.2710
      9 C          60.5021   89.4335   12.9838 C.3     1  UNL1        0.1603
     10 C          59.0505   89.0602   12.9219 C.3     1  UNL1        0.2835
     11 F          59.0599   89.4116   14.3802 F       1  UNL1       -0.2024
     12 F          57.6010   88.7604   13.1648 F       1  UNL1       -0.2024
     13 C          58.7381   88.6461   11.5145 C.3     1  UNL1        0.0881
     14 C          59.9964   88.7635   10.7066 C.3     1  UNL1        0.0814
     15 C          60.1394   88.4494    9.2468 C.3     1  UNL1        0.0217
     16 C          63.1254   84.8851   14.2900 C.ar    1  UNL1        0.1333
     17 C          63.2597   85.3371   12.8661 C.ar    1  UNL1        0.0208
     18 C          63.5726   86.7720   12.5610 C.ar    1  UNL1        0.0028
     19 C          63.7512   87.7549   13.6799 C.ar    1  UNL1        0.0191
     20 C          63.6169   87.3029   15.1038 C.ar    1  UNL1        0.0700
     21 CL         63.7955   88.2859   16.2227 Cl      1  UNL1       -0.0813
     22 C          63.3040   85.8680   15.4088 C.ar    1  UNL1        0.0867
     23 CL         63.1696   85.4161   16.8329 Cl      1  UNL1       -0.0800
     24 S          62.8124   83.4502   14.5951 S.O2    1  UNL1        0.0613
     25 O          61.3546   83.7891   14.6938 O.2     1  UNL1       -0.1530
     26 O          64.2703   83.1112   14.4963 O.2     1  UNL1       -0.1530
     27 N          62.4995   82.0152   14.9001 N.3     1  UNL1       -0.1723
     28 H          63.3908   81.5489   15.0687 H       1  UNL1        0.1491
     29 C          60.3810   80.6745   14.2188 C.3     1  UNL1        0.0278
     30 C          61.7565   81.1805   13.8996 C.3     1  UNL1        0.1701
     31 C          62.3890   80.8518   12.5797 C.3     1  UNL1        0.4118
     32 F          63.0215   80.5231   11.2599 F       1  UNL1       -0.1685
     33 F          61.9740   82.1913   12.0473 F       1  UNL1       -0.1685
     34 F          62.8040   79.5123   13.1122 F       1  UNL1       -0.1685
     35 C          65.8126   92.6094   13.9361 C.2     1  UNL1        0.2699
     36 O          65.7694   93.8816   13.1426 O.2     1  UNL1       -0.2679
     37 N          66.6567   92.5254   15.1732 N.am    1  UNL1       -0.2969
     38 H          66.6850   91.6904   15.6940 H       1  UNL1        0.1499
     39 C          67.4576   93.7136   15.6168 C.3     1  UNL1        0.1166
     40 C          68.8651   93.5304   16.1023 C.3     1  UNL1        0.1064
     41 C          68.6321   92.0532   16.2203 C.3     1  UNL1        0.0311
     42 C          69.0980   95.0075   15.9842 C.3     1  UNL1        0.0311
     43 O          70.2725   93.3472   16.5877 O.3     1  UNL1       -0.3851
     44 H          70.4338   92.4072   16.7643 H       1  UNL1        0.2103
@<TRIPOS>BOND
     1    30    29    1
     2    30    27    1
     3    27    24    1
     4    24    25    2
     5    24    26    2
     6    24    16    1
     7    16    17   ar
     8    17    18   ar
     9    18    19   ar
    10    19     1    1
    11     1     2   ar
    12     2     3   ar
    13     3    35    1
    14    35    36    2
    15    35    37   am
    16    37    39    1
    17    39    40    1
    18    40    41    1
    19    40    42    1
    20    40    43    1
    21     3     4   ar
    22     4     5   ar
    23     5     6    1
    24     6     7    2
    25     6     8   am
    26     8     9    1
    27     9    10    1
    28    10    11    1
    29    10    12    1
    30    10    13    1
    31    13    14    1
    32    14    15    1
    33    19    20   ar
    34    20    21    1
    35    20    22   ar
    36    22    23    1
    37    30    31    1
    38    31    32    1
    39    31    33    1
    40    31    34    1
    41    22    16   ar
    42     5     1   ar
    43    14     8    1
    44    27    28    1
    45    37    38    1
    46    43    44    1
