@<TRIPOS>MOLECULE
*****
 21 23 0 0 0
SMALL
GASTEIGER

@<TRIPOS>ATOM
      1 C          61.1362   86.6869    9.1959 C.ar    1  UNL1       -0.0225
      2 C          61.6311   85.5880   10.0890 C.ar    1  UNL1       -0.0068
      3 C          62.3803   85.9223   11.3448 C.ar    1  UNL1        0.0011
      4 C          62.6346   87.3555   11.7074 C.ar    1  UNL1        0.0551
      5 C          62.1396   88.4543   10.8143 C.ar    1  UNL1        0.0752
      6 C          61.3904   88.1200    9.5585 C.ar    1  UNL1       -0.0003
      7 C          63.3963   87.3785   12.9994 C.2     1  UNL1        0.2490
      8 O          63.8601   88.6051   13.7277 O.2     1  UNL1       -0.2699
      9 N          63.6128   85.9596   13.4353 N.am    1  UNL1       -0.2712
     10 C          64.3006   85.3709   14.6312 C.3     1  UNL1        0.1111
     11 C          64.3604   83.8822   14.8045 C.3     1  UNL1        0.0904
     12 N          63.7325   82.9822   13.7819 N.3     1  UNL1       -0.2944
     13 C          63.0447   83.5710   12.5860 C.3     1  UNL1        0.0933
     14 C          62.9849   85.0597   12.4127 C.3     1  UNL1        0.1140
     15 H          63.0386   82.4181   14.2725 H       1  UNL1        0.1234
     16 C          62.3939   89.8874   11.1769 C.3     1  UNL1        0.4187
     17 F          62.6480   91.3205   11.5396 F       1  UNL1       -0.1659
     18 F          63.4001   89.9893   10.0692 F       1  UNL1       -0.1659
     19 F          61.3876   89.7856   12.2847 F       1  UNL1       -0.1659
     20 C          58.9520   86.7630    7.7911 C.3     1  UNL1        0.0050
     21 C          60.3870   86.3525    7.9401 C.3     1  UNL1        0.0263
@<TRIPOS>BOND
     1    20    21    1
     2    21     1    1
     3     1     2   ar
     4     2     3   ar
     5     3     4   ar
     6     4     5   ar
     7     5    16    1
     8    16    17    1
     9    16    18    1
    10    16    19    1
    11     5     6   ar
    12     4     7    1
    13     7     8    2
    14     7     9   am
    15     9    10    1
    16    10    11    1
    17    11    12    1
    18    12    13    1
    19    14    13    1
    20     6     1   ar
    21    14     9    1
    22    14     3    1
    23    12    15    1
@<TRIPOS>MOLECULE
*****
 21 23 0 0 0
SMALL
GASTEIGER

@<TRIPOS>ATOM
      1 C          61.5860   86.4475    9.8963 C.ar    1  UNL1       -0.0225
      2 C          61.9642   87.8125   10.3899 C.ar    1  UNL1       -0.0068
      3 C          62.7355   87.9608   11.6678 C.ar    1  UNL1        0.0011
      4 C          63.1284   86.7441   12.4522 C.ar    1  UNL1        0.0551
      5 C          62.7502   85.3791   11.9585 C.ar    1  UNL1        0.0752
      6 C          61.9789   85.2307   10.6806 C.ar    1  UNL1       -0.0003
      7 C          63.8810   87.1991   13.6673 C.2     1  UNL1        0.2490
      8 O          64.4599   86.3120   14.7293 O.2     1  UNL1       -0.2699
      9 N          63.9532   88.6970   13.6340 N.am    1  UNL1       -0.2712
     10 C          64.5721   89.6931   14.5692 C.3     1  UNL1        0.1111
     11 C          64.4831   91.1599   14.2686 C.3     1  UNL1        0.0904
     12 N          63.7750   91.6307   13.0329 N.3     1  UNL1       -0.2944
     13 C          63.1561   90.6346   12.0977 C.3     1  UNL1        0.0933
     14 C          63.2452   89.1678   12.3982 C.3     1  UNL1        0.1140
     15 H          64.4544   92.1627   12.4889 H       1  UNL1        0.1234
     16 C          63.1431   84.1624   12.7429 C.3     1  UNL1        0.4187
     17 F          63.5362   82.9456   13.5271 F       1  UNL1       -0.1659
     18 F          62.0874   84.4774   13.7607 F       1  UNL1       -0.1659
     19 F          64.1990   83.8473   11.7250 F       1  UNL1       -0.1659
     20 C          59.5199   87.0337    8.4341 C.3     1  UNL1        0.0050
     21 C          60.8147   86.2992    8.6182 C.3     1  UNL1        0.0263
@<TRIPOS>BOND
     1    20    21    1
     2    21     1    1
     3     1     2   ar
     4     2     3   ar
     5     3     4   ar
     6     4     5   ar
     7     5    16    1
     8    16    17    1
     9    16    18    1
    10    16    19    1
    11     5     6   ar
    12     4     7    1
    13     7     8    2
    14     7     9   am
    15     9    10    1
    16    10    11    1
    17    11    12    1
    18    12    13    1
    19    14    13    1
    20     6     1   ar
    21    14     9    1
    22    14     3    1
    23    12    15    1
@<TRIPOS>MOLECULE
*****
 21 23 0 0 0
SMALL
GASTEIGER

@<TRIPOS>ATOM
      1 C          62.6131   89.3400   11.1550 C.ar    1  UNL1       -0.0225
      2 C          63.1436   88.6385   12.3701 C.ar    1  UNL1       -0.0068
      3 C          63.1477   87.1397   12.4289 C.ar    1  UNL1        0.0011
      4 C          62.6213   86.3423   11.2726 C.ar    1  UNL1        0.0551
      5 C          62.0908   87.0438   10.0575 C.ar    1  UNL1        0.0752
      6 C          62.0867   88.5426    9.9987 C.ar    1  UNL1       -0.0003
      7 C          62.7522   84.8877   11.6148 C.2     1  UNL1        0.2490
      8 O          62.3470   83.7368   10.7424 O.2     1  UNL1       -0.2699
      9 N          63.3595   84.7861   12.9826 N.am    1  UNL1       -0.2712
     10 C          63.7215   83.6061   13.8349 C.3     1  UNL1        0.1111
     11 C          64.3279   83.8179   15.1904 C.3     1  UNL1        0.0904
     12 N          64.5723   85.2097   15.6936 N.3     1  UNL1       -0.2944
     13 C          64.2103   86.3897   14.8413 C.3     1  UNL1        0.0933
     14 C          63.6039   86.1779   13.4858 C.3     1  UNL1        0.1140
     15 H          65.5712   85.2816   15.8871 H       1  UNL1        0.1234
     16 C          61.5644   86.2464    8.9011 C.3     1  UNL1        0.4187
     17 F          61.0381   85.4490    7.7447 F       1  UNL1       -0.1659
     18 F          60.1664   86.4243    9.4148 F       1  UNL1       -0.1659
     19 F          62.9625   86.0685    8.3874 F       1  UNL1       -0.1659
     20 C          63.7904   91.5705   10.5316 C.3     1  UNL1        0.0050
     21 C          62.6090   90.8389   11.0962 C.3     1  UNL1        0.0263
@<TRIPOS>BOND
     1    20    21    1
     2    21     1    1
     3     1     2   ar
     4     2     3   ar
     5     3     4   ar
     6     4     5   ar
     7     5    16    1
     8    16    17    1
     9    16    18    1
    10    16    19    1
    11     5     6   ar
    12     4     7    1
    13     7     8    2
    14     7     9   am
    15     9    10    1
    16    10    11    1
    17    11    12    1
    18    12    13    1
    19    14    13    1
    20     6     1   ar
    21    14     9    1
    22    14     3    1
    23    12    15    1
@<TRIPOS>MOLECULE
*****
 21 23 0 0 0
SMALL
GASTEIGER

@<TRIPOS>ATOM
      1 C          63.8714   89.8028   13.2037 C.ar    1  UNL1       -0.0225
      2 C          64.1844   88.5123   13.9014 C.ar    1  UNL1       -0.0068
      3 C          63.6550   87.2184   13.3578 C.ar    1  UNL1        0.0011
      4 C          62.8127   87.2149   12.1166 C.ar    1  UNL1        0.0551
      5 C          62.4998   88.5054   11.4190 C.ar    1  UNL1        0.0752
      6 C          63.0292   89.7994   11.9625 C.ar    1  UNL1       -0.0003
      7 C          62.4336   85.7948   11.8177 C.2     1  UNL1        0.2490
      8 O          61.5940   85.3303   10.6648 O.2     1  UNL1       -0.2699
      9 N          63.0416   84.9205   12.8742 N.am    1  UNL1       -0.2712
     10 C          63.0053   83.4369   13.0924 C.3     1  UNL1        0.1111
     11 C          63.7240   82.8332   14.2624 C.3     1  UNL1        0.0904
     12 N          64.4788   83.7130   15.2143 N.3     1  UNL1       -0.2944
     13 C          64.5151   85.1966   14.9961 C.3     1  UNL1        0.0933
     14 C          63.7965   85.8003   13.8260 C.3     1  UNL1        0.1140
     15 H          65.4466   83.3909   15.2086 H       1  UNL1        0.1234
     16 C          61.6576   88.5020   10.1778 C.3     1  UNL1        0.4187
     17 F          60.8152   88.4986    8.9367 F       1  UNL1       -0.1659
     18 F          62.8070   87.9342    9.3993 F       1  UNL1       -0.1659
     19 F          60.5080   89.0699   10.9564 F       1  UNL1       -0.1659
     20 C          65.6969   91.1189   14.5022 C.3     1  UNL1        0.0050
     21 C          64.4009   91.0968   13.7473 C.3     1  UNL1        0.0263
@<TRIPOS>BOND
     1    20    21    1
     2    21     1    1
     3     1     2   ar
     4     2     3   ar
     5     3     4   ar
     6     4     5   ar
     7     5    16    1
     8    16    17    1
     9    16    18    1
    10    16    19    1
    11     5     6   ar
    12     4     7    1
    13     7     8    2
    14     7     9   am
    15     9    10    1
    16    10    11    1
    17    11    12    1
    18    12    13    1
    19    14    13    1
    20     6     1   ar
    21    14     9    1
    22    14     3    1
    23    12    15    1
@<TRIPOS>MOLECULE
*****
 21 23 0 0 0
SMALL
GASTEIGER

@<TRIPOS>ATOM
      1 C          62.7543   84.4751   12.0823 C.ar    1  UNL1       -0.0225
      2 C          63.3022   85.5932   12.9186 C.ar    1  UNL1       -0.0068
      3 C          63.1503   87.0144   12.4633 C.ar    1  UNL1        0.0011
      4 C          62.4505   87.3173   11.1716 C.ar    1  UNL1        0.0551
      5 C          61.9025   86.1991   10.3353 C.ar    1  UNL1        0.0752
      6 C          62.0544   84.7780   10.7907 C.ar    1  UNL1       -0.0003
      7 C          62.4517   88.8052   10.9817 C.2     1  UNL1        0.2490
      8 O          61.8567   89.5464    9.8212 O.2     1  UNL1       -0.2699
      9 N          63.1523   89.4219   12.1560 N.am    1  UNL1       -0.2712
     10 C          63.4529   90.8482   12.5097 C.3     1  UNL1        0.1111
     11 C          64.1852   91.1677   13.7791 C.3     1  UNL1        0.0904
     12 N          64.6170   90.0609   14.6948 N.3     1  UNL1       -0.2944
     13 C          64.3165   88.6346   14.3411 C.3     1  UNL1        0.0933
     14 C          63.5841   88.3150   13.0717 C.3     1  UNL1        0.1140
     15 H          64.1790   90.2387   15.5986 H       1  UNL1        0.1234
     16 C          61.2026   86.5020    9.0437 C.3     1  UNL1        0.4187
     17 F          60.5028   86.8049    7.7519 F       1  UNL1       -0.1659
     18 F          59.9810   86.9245    9.8046 F       1  UNL1       -0.1659
     19 F          62.4243   86.0794    8.2827 F       1  UNL1       -0.1659
     20 C          63.0716   81.9565   11.5285 C.3     1  UNL1        0.0050
     21 C          62.9062   83.0539   12.5377 C.3     1  UNL1        0.0263
@<TRIPOS>BOND
     1    20    21    1
     2    21     1    1
     3     1     2   ar
     4     2     3   ar
     5     3     4   ar
     6     4     5   ar
     7     5    16    1
     8    16    17    1
     9    16    18    1
    10    16    19    1
    11     5     6   ar
    12     4     7    1
    13     7     8    2
    14     7     9   am
    15     9    10    1
    16    10    11    1
    17    11    12    1
    18    12    13    1
    19    14    13    1
    20     6     1   ar
    21    14     9    1
    22    14     3    1
    23    12    15    1
@<TRIPOS>MOLECULE
*****
 21 23 0 0 0
SMALL
GASTEIGER

@<TRIPOS>ATOM
      1 C          62.5265   89.2047   10.8243 C.ar    1  UNL1       -0.0225
      2 C          63.1982   90.4765   10.3984 C.ar    1  UNL1       -0.0068
      3 C          64.0421   91.2420   11.3740 C.ar    1  UNL1        0.0011
      4 C          64.2142   90.7358   12.7754 C.ar    1  UNL1        0.0551
      5 C          63.5425   89.4641   13.2013 C.ar    1  UNL1        0.0752
      6 C          62.6986   88.6985   12.2258 C.ar    1  UNL1       -0.0003
      7 C          65.0997   91.6981   13.5103 C.2     1  UNL1        0.2490
      8 O          65.5338   91.5802   14.9413 O.2     1  UNL1       -0.2699
      9 N          65.4748   92.7990   12.5631 N.am    1  UNL1       -0.2712
     10 C          66.3270   94.0217   12.7322 C.3     1  UNL1        0.1111
     11 C          66.5257   94.9625   11.5810 C.3     1  UNL1        0.0904
     12 N          65.8721   94.6806   10.2606 N.3     1  UNL1       -0.2944
     13 C          65.0198   93.4580   10.0915 C.3     1  UNL1        0.0933
     14 C          64.8212   92.5171   11.2427 C.3     1  UNL1        0.1140
     15 H          66.6197   94.6163    9.5698 H       1  UNL1        0.1234
     16 C          63.7146   88.9578   14.6028 C.3     1  UNL1        0.4187
     17 F          63.8868   88.4515   16.0042 F       1  UNL1       -0.1659
     18 F          62.8260   90.0553   15.1084 F       1  UNL1       -0.1659
     19 F          64.6033   87.8602   14.0971 F       1  UNL1       -0.1659
     20 C          62.0749   87.0480    9.4477 C.3     1  UNL1        0.0050
     21 C          61.6825   88.4391    9.8487 C.3     1  UNL1        0.0263
@<TRIPOS>BOND
     1    20    21    1
     2    21     1    1
     3     1     2   ar
     4     2     3   ar
     5     3     4   ar
     6     4     5   ar
     7     5    16    1
     8    16    17    1
     9    16    18    1
    10    16    19    1
    11     5     6   ar
    12     4     7    1
    13     7     8    2
    14     7     9   am
    15     9    10    1
    16    10    11    1
    17    11    12    1
    18    12    13    1
    19    14    13    1
    20     6     1   ar
    21    14     9    1
    22    14     3    1
    23    12    15    1
@<TRIPOS>MOLECULE
*****
 21 23 0 0 0
SMALL
GASTEIGER

@<TRIPOS>ATOM
      1 C          62.9391   82.4772   12.3423 C.ar    1  UNL1       -0.0225
      2 C          62.3107   83.3717   11.3152 C.ar    1  UNL1       -0.0068
      3 C          62.4103   84.8617   11.4565 C.ar    1  UNL1        0.0011
      4 C          63.1382   85.4572   12.6251 C.ar    1  UNL1        0.0551
      5 C          63.7666   84.5627   13.6523 C.ar    1  UNL1        0.0752
      6 C          63.6670   83.0727   13.5109 C.ar    1  UNL1       -0.0003
      7 C          63.0728   86.9505   12.4998 C.2     1  UNL1        0.2490
      8 O          63.6707   87.9423   13.4531 O.2     1  UNL1       -0.2699
      9 N          62.3044   87.2779   11.2538 N.am    1  UNL1       -0.2712
     10 C          61.9247   88.5848   10.6231 C.3     1  UNL1        0.1111
     11 C          61.1355   88.6007    9.3476 C.3     1  UNL1        0.0904
     12 N          60.7261   87.3097    8.7028 N.3     1  UNL1       -0.2944
     13 C          61.1058   86.0028    9.3335 C.3     1  UNL1        0.0933
     14 C          61.8950   85.9869   10.6090 C.3     1  UNL1        0.1140
     15 H          61.1245   87.3102    7.7638 H       1  UNL1        0.1234
     16 C          64.4945   85.1582   14.8208 C.3     1  UNL1        0.4187
     17 F          65.2226   85.7536   15.9893 F       1  UNL1       -0.1659
     18 F          63.1831   85.4919   15.4678 F       1  UNL1       -0.1659
     19 F          65.8061   84.8244   14.1738 F       1  UNL1       -0.1659
     20 C          62.3070   80.1602   13.3334 C.3     1  UNL1        0.0050
     21 C          62.8395   80.9871   12.2009 C.3     1  UNL1        0.0263
@<TRIPOS>BOND
     1    20    21    1
     2    21     1    1
     3     1     2   ar
     4     2     3   ar
     5     3     4   ar
     6     4     5   ar
     7     5    16    1
     8    16    17    1
     9    16    18    1
    10    16    19    1
    11     5     6   ar
    12     4     7    1
    13     7     8    2
    14     7     9   am
    15     9    10    1
    16    10    11    1
    17    11    12    1
    18    12    13    1
    19    14    13    1
    20     6     1   ar
    21    14     9    1
    22    14     3    1
    23    12    15    1
@<TRIPOS>MOLECULE
*****
 21 23 0 0 0
SMALL
GASTEIGER

@<TRIPOS>ATOM
      1 C          64.2653   88.8137   14.1825 C.ar    1  UNL1       -0.0225
      2 C          63.4749   89.0113   12.9230 C.ar    1  UNL1       -0.0068
      3 C          62.9181   87.8251   12.1932 C.ar    1  UNL1        0.0011
      4 C          63.1516   86.4413   12.7228 C.ar    1  UNL1        0.0551
      5 C          63.9420   86.2437   13.9823 C.ar    1  UNL1        0.0752
      6 C          64.4989   87.4299   14.7122 C.ar    1  UNL1       -0.0003
      7 C          62.4840   85.4708   11.7941 C.2     1  UNL1        0.2490
      8 O          62.4657   83.9783   11.9428 O.2     1  UNL1       -0.2699
      9 N          61.8379   86.2548   10.6905 N.am    1  UNL1       -0.2712
     10 C          61.0400   85.8318    9.4929 C.3     1  UNL1        0.1111
     11 C          60.5103   86.8638    8.5420 C.3     1  UNL1        0.0904
     12 N          60.7785   88.3188    8.7886 N.3     1  UNL1       -0.2944
     13 C          61.5765   88.7419    9.9862 C.3     1  UNL1        0.0933
     14 C          62.1062   87.7099   10.9372 C.3     1  UNL1        0.1140
     15 H          59.8704   88.7772    8.8630 H       1  UNL1        0.1234
     16 C          64.1755   84.8599   14.5119 C.3     1  UNL1        0.4187
     17 F          64.4089   83.4760   15.0416 F       1  UNL1       -0.1659
     18 F          65.5908   84.9094   14.0175 F       1  UNL1       -0.1659
     19 F          62.7602   84.8103   15.0064 F       1  UNL1       -0.1659
     20 C          65.4067   91.1474   14.1430 C.3     1  UNL1        0.0050
     21 C          64.8222   90.0001   14.9124 C.3     1  UNL1        0.0263
@<TRIPOS>BOND
     1    20    21    1
     2    21     1    1
     3     1     2   ar
     4     2     3   ar
     5     3     4   ar
     6     4     5   ar
     7     5    16    1
     8    16    17    1
     9    16    18    1
    10    16    19    1
    11     5     6   ar
    12     4     7    1
    13     7     8    2
    14     7     9   am
    15     9    10    1
    16    10    11    1
    17    11    12    1
    18    12    13    1
    19    14    13    1
    20     6     1   ar
    21    14     9    1
    22    14     3    1
    23    12    15    1
@<TRIPOS>MOLECULE
*****
 21 23 0 0 0
SMALL
GASTEIGER

@<TRIPOS>ATOM
      1 C          62.1059   88.8047   10.9988 C.ar    1  UNL1       -0.0225
      2 C          62.1461   87.3052   11.0057 C.ar    1  UNL1       -0.0068
      3 C          62.8796   86.5796   12.0945 C.ar    1  UNL1        0.0011
      4 C          63.5730   87.3534   13.1763 C.ar    1  UNL1        0.0551
      5 C          63.5329   88.8529   13.1694 C.ar    1  UNL1        0.0752
      6 C          62.7993   89.5785   12.0806 C.ar    1  UNL1       -0.0003
      7 C          64.2121   86.3708   14.1122 C.2     1  UNL1        0.2490
      8 O          65.0096   86.7097   15.3366 O.2     1  UNL1       -0.2699
      9 N          63.9137   84.9896   13.6088 N.am    1  UNL1       -0.2712
     10 C          64.2855   83.6312   14.1248 C.3     1  UNL1        0.1111
     11 C          63.8337   82.4018   13.3938 C.3     1  UNL1        0.0904
     12 N          63.0102   82.5308   12.1467 N.3     1  UNL1       -0.2944
     13 C          62.6384   83.8893   11.6307 C.3     1  UNL1        0.0933
     14 C          63.0902   85.1187   12.3617 C.3     1  UNL1        0.1140
     15 H          62.1372   82.0316   12.3174 H       1  UNL1        0.1234
     16 C          64.2262   89.6268   14.2512 C.3     1  UNL1        0.4187
     17 F          64.9196   90.4006   15.3331 F       1  UNL1       -0.1659
     18 F          65.1218   90.2572   13.2263 F       1  UNL1       -0.1659
     19 F          63.3307   88.9962   15.2762 F       1  UNL1       -0.1659
     20 C          60.0858   90.2384   10.2155 C.3     1  UNL1        0.0050
     21 C          61.3723   89.5303    9.9100 C.3     1  UNL1        0.0263
@<TRIPOS>BOND
     1    20    21    1
     2    21     1    1
     3     1     2   ar
     4     2     3   ar
     5     3     4   ar
     6     4     5   ar
     7     5    16    1
     8    16    17    1
     9    16    18    1
    10    16    19    1
    11     5     6   ar
    12     4     7    1
    13     7     8    2
    14     7     9   am
    15     9    10    1
    16    10    11    1
    17    11    12    1
    18    12    13    1
    19    14    13    1
    20     6     1   ar
    21    14     9    1
    22    14     3    1
    23    12    15    1
