@<TRIPOS>MOLECULE
*****
 42 47 0 0 0
SMALL
GASTEIGER

@<TRIPOS>ATOM
      1 N          65.2877   92.3070   12.0749 N.3     1  UNL1       -0.2679
      2 C          66.3349   92.6794   11.0676 C.3     1  UNL1        0.0978
      3 C          67.3390   91.6599   10.6178 C.3     1  UNL1        0.0224
      4 C          68.3863   92.0324    9.6105 C.3     1  UNL1        0.0065
      5 C          68.4295   93.4243    9.0531 C.3     1  UNL1        0.0277
      6 C          67.4254   94.4438    9.5030 C.ar    1  UNL1       -0.0073
      7 C          67.4685   95.8357    8.9456 C.ar    1  UNL1       -0.0015
      8 C          66.4644   96.8552    9.3955 C.ar    1  UNL1        0.0203
      9 C          65.4172   96.4828   10.4027 C.ar    1  UNL1        0.0985
     10 N          65.3740   95.0909   10.9601 N.ar    1  UNL1       -0.2471
     11 C          66.3781   94.0714   10.5102 C.ar    1  UNL1        0.0695
     12 C          65.6426   92.2235   13.5299 C.3     1  UNL1        0.0886
     13 C          63.0086   86.8023   16.8349 C.ar    1  UNL1       -0.0003
     14 C          63.8687   86.3184   15.7054 C.ar    1  UNL1       -0.0003
     15 C          64.5676   87.3058   14.8185 C.ar    1  UNL1       -0.0045
     16 C          64.4063   88.7772   15.0611 C.ar    1  UNL1       -0.0234
     17 C          63.5461   89.2612   16.1907 C.ar    1  UNL1       -0.0103
     18 C          62.8473   88.2737   17.0776 C.ar    1  UNL1       -0.0032
     19 C          63.3848   90.7326   16.4334 C.3     1  UNL1        0.0953
     20 N          64.0836   91.7201   15.5464 N.3     1  UNL1       -0.2934
     21 C          64.9438   91.2360   14.4168 C.3     1  UNL1        0.0748
     22 C          65.1051   89.7646   14.1742 C.3     1  UNL1        0.0432
     23 H          64.6805   92.2864   16.1493 H       1  UNL1        0.1236
     24 C          63.8855   92.0182   11.6271 C.3     1  UNL1        0.0725
     25 C          63.5732   90.7312   10.9229 C.3     1  UNL1        0.0188
     26 C          62.4470   89.8661   11.4060 C.3     1  UNL1        0.0188
     27 C          62.7319   88.4949   11.9436 C.3     1  UNL1        0.0727
     28 N          62.3846   87.2834   11.1303 N.3     1  UNL1       -0.2652
     29 C          62.4105   87.3531    9.6322 C.3     1  UNL1        0.0995
     30 C          61.1270   87.4681    8.8645 C.ar    1  UNL1       -0.0030
     31 C          60.5234   88.8176    8.6103 C.ar    1  UNL1        0.0178
     32 C          59.2399   88.9326    7.8426 C.ar    1  UNL1        0.0986
     33 N          58.5600   87.6982    7.3290 N.ar    1  UNL1       -0.2423
     34 C          59.1635   86.3488    7.5832 C.ar    1  UNL1        0.0986
     35 C          60.4470   86.2337    8.3509 C.ar    1  UNL1        0.0178
     36 C          62.0115   86.0020   11.8152 C.3     1  UNL1        0.0995
     37 C          62.8869   84.7924   11.6718 C.ar    1  UNL1       -0.0030
     38 C          63.2251   84.2689   10.3074 C.ar    1  UNL1        0.0178
     39 C          64.1005   83.0593   10.1639 C.ar    1  UNL1        0.0986
     40 N          64.6376   82.3732   11.3849 N.ar    1  UNL1       -0.2423
     41 C          64.2994   82.8967   12.7493 C.ar    1  UNL1        0.0986
     42 C          63.4240   84.1063   12.8927 C.ar    1  UNL1        0.0178
@<TRIPOS>BOND
     1    13    14   ar
     2    14    15   ar
     3    15    16   ar
     4    16    17   ar
     5    17    18   ar
     6    17    19    1
     7    19    20    1
     8    20    21    1
     9    21    12    1
    10    12     1    1
    11     1    24    1
    12    24    25    1
    13    25    26    1
    14    26    27    1
    15    27    28    1
    16    28    29    1
    17    29    30    1
    18    30    31   ar
    19    31    32   ar
    20    32    33   ar
    21    33    34   ar
    22    34    35   ar
    23    28    36    1
    24    36    37    1
    25    37    38   ar
    26    38    39   ar
    27    39    40   ar
    28    40    41   ar
    29    41    42   ar
    30     2     1    1
    31     2     3    1
    32     3     4    1
    33     4     5    1
    34     5     6    1
    35     6     7   ar
    36     7     8   ar
    37     8     9   ar
    38     9    10   ar
    39    10    11   ar
    40    21    22    1
    41    18    13   ar
    42    35    30   ar
    43    42    37   ar
    44    11     2    1
    45    22    16    1
    46    11     6   ar
    47    20    23    1
@<TRIPOS>MOLECULE
*****
 42 47 0 0 0
SMALL
GASTEIGER

@<TRIPOS>ATOM
      1 N          65.2297   92.2952   12.0770 N.3     1  UNL1       -0.2679
      2 C          66.3289   92.6481   11.1194 C.3     1  UNL1        0.0978
      3 C          67.4077   91.6512   10.8156 C.3     1  UNL1        0.0224
      4 C          68.5070   92.0043    9.8579 C.3     1  UNL1        0.0065
      5 C          68.5275   93.3541    9.2042 C.3     1  UNL1        0.0277
      6 C          67.4486   94.3510    9.5081 C.ar    1  UNL1       -0.0073
      7 C          67.4691   95.7009    8.8543 C.ar    1  UNL1       -0.0015
      8 C          66.3903   96.6978    9.1582 C.ar    1  UNL1        0.0203
      9 C          65.2910   96.3448   10.1158 C.ar    1  UNL1        0.0985
     10 N          65.2706   94.9950   10.7695 N.ar    1  UNL1       -0.2471
     11 C          66.3494   93.9981   10.4656 C.ar    1  UNL1        0.0695
     12 C          65.4919   92.2979   13.5540 C.3     1  UNL1        0.0886
     13 C          63.1222   86.7149   16.7889 C.ar    1  UNL1       -0.0003
     14 C          63.9773   86.2869   15.6332 C.ar    1  UNL1       -0.0003
     15 C          64.6223   87.3179   14.7551 C.ar    1  UNL1       -0.0045
     16 C          64.4122   88.7769   15.0326 C.ar    1  UNL1       -0.0234
     17 C          63.5571   89.2049   16.1883 C.ar    1  UNL1       -0.0103
     18 C          62.9121   88.1739   17.0664 C.ar    1  UNL1       -0.0032
     19 C          63.3469   90.6640   16.4659 C.3     1  UNL1        0.0953
     20 N          63.9918   91.6950   15.5878 N.3     1  UNL1       -0.2934
     21 C          64.8470   91.2669   14.4321 C.3     1  UNL1        0.0748
     22 C          65.0571   89.8079   14.1545 C.3     1  UNL1        0.0432
     23 H          64.5792   92.2701   16.1915 H       1  UNL1        0.1236
     24 C          63.8681   91.9396   11.5577 C.3     1  UNL1        0.0725
     25 C          63.1478   90.7411   12.1007 C.3     1  UNL1        0.0188
     26 C          62.9832   89.5162   11.2507 C.3     1  UNL1        0.0188
     27 C          62.7651   88.1795   11.8956 C.3     1  UNL1        0.0727
     28 N          62.3537   87.0026   11.0616 N.3     1  UNL1       -0.2652
     29 C          61.9355   85.7235   11.7241 C.3     1  UNL1        0.0995
     30 C          62.8455   84.5314   11.6950 C.ar    1  UNL1       -0.0030
     31 C          63.3548   84.0084   10.3847 C.ar    1  UNL1        0.0178
     32 C          64.2648   82.8163   10.3557 C.ar    1  UNL1        0.0986
     33 N          64.6655   82.1472   11.6370 N.ar    1  UNL1       -0.2423
     34 C          64.1562   82.6702   12.9473 C.ar    1  UNL1        0.0986
     35 C          63.2462   83.8623   12.9763 C.ar    1  UNL1        0.0178
     36 C          62.3606   87.1048    9.5651 C.3     1  UNL1        0.0995
     37 C          61.0907   87.4125    8.8285 C.ar    1  UNL1       -0.0030
     38 C          60.6222   88.8318    8.7017 C.ar    1  UNL1        0.0178
     39 C          59.3522   89.1395    7.9651 C.ar    1  UNL1        0.0986
     40 N          58.5507   88.0279    7.3554 N.ar    1  UNL1       -0.2423
     41 C          59.0192   86.6085    7.4822 C.ar    1  UNL1        0.0986
     42 C          60.2891   86.3009    8.2187 C.ar    1  UNL1        0.0178
@<TRIPOS>BOND
     1    13    14   ar
     2    14    15   ar
     3    15    16   ar
     4    16    17   ar
     5    17    18   ar
     6    17    19    1
     7    19    20    1
     8    20    21    1
     9    21    12    1
    10    12     1    1
    11     1    24    1
    12    24    25    1
    13    25    26    1
    14    26    27    1
    15    27    28    1
    16    28    29    1
    17    29    30    1
    18    30    31   ar
    19    31    32   ar
    20    32    33   ar
    21    33    34   ar
    22    34    35   ar
    23    28    36    1
    24    36    37    1
    25    37    38   ar
    26    38    39   ar
    27    39    40   ar
    28    40    41   ar
    29    41    42   ar
    30     2     1    1
    31     2     3    1
    32     3     4    1
    33     4     5    1
    34     5     6    1
    35     6     7   ar
    36     7     8   ar
    37     8     9   ar
    38     9    10   ar
    39    10    11   ar
    40    21    22    1
    41    18    13   ar
    42    35    30   ar
    43    42    37   ar
    44    11     2    1
    45    22    16    1
    46    11     6   ar
    47    20    23    1
@<TRIPOS>MOLECULE
*****
 42 47 0 0 0
SMALL
GASTEIGER

@<TRIPOS>ATOM
      1 N          61.8084   87.4168   11.1283 N.3     1  UNL1       -0.2679
      2 C          60.9552   87.1220    9.9304 C.3     1  UNL1        0.0978
      3 C          59.5756   87.7024    9.8311 C.3     1  UNL1        0.0224
      4 C          58.7223   87.4076    8.6331 C.3     1  UNL1        0.0065
      5 C          59.2487   86.5324    7.5345 C.3     1  UNL1        0.0277
      6 C          60.6282   85.9520    7.6338 C.ar    1  UNL1       -0.0073
      7 C          61.1546   85.0768    6.5352 C.ar    1  UNL1       -0.0015
      8 C          62.5342   84.4964    6.6346 C.ar    1  UNL1        0.0203
      9 C          63.3874   84.7912    7.8325 C.ar    1  UNL1        0.0985
     10 N          62.8611   85.6664    8.9310 N.ar    1  UNL1       -0.2471
     11 C          61.4815   86.2468    8.8317 C.ar    1  UNL1        0.0695
     12 C          62.9708   86.5279   11.4583 C.3     1  UNL1        0.0886
     13 C          62.2536   80.0343   13.5957 C.ar    1  UNL1       -0.0003
     14 C          62.6779   80.0336   12.1570 C.ar    1  UNL1       -0.0003
     15 C          62.9062   81.3322   11.4418 C.ar    1  UNL1       -0.0045
     16 C          62.7102   82.6315   12.1653 C.ar    1  UNL1       -0.0234
     17 C          62.2858   82.6321   13.6040 C.ar    1  UNL1       -0.0103
     18 C          62.0575   81.3335   14.3192 C.ar    1  UNL1       -0.0032
     19 C          62.0898   83.9314   14.3275 C.3     1  UNL1        0.0953
     20 N          62.3181   85.2300   13.6123 N.3     1  UNL1       -0.2934
     21 C          62.7424   85.2293   12.1735 C.3     1  UNL1        0.0748
     22 C          62.9385   83.9301   11.4500 C.3     1  UNL1        0.0432
     23 H          63.0399   85.7294   14.1319 H       1  UNL1        0.1236
     24 C          61.4994   88.6005   11.9963 C.3     1  UNL1        0.0725
     25 C          61.8838   89.9796   11.5486 C.3     1  UNL1        0.0188
     26 C          63.3209   90.4074   11.5877 C.3     1  UNL1        0.0188
     27 C          63.7059   91.6800   12.2823 C.3     1  UNL1        0.0727
     28 N          64.6774   91.6466   13.4247 N.3     1  UNL1       -0.2652
     29 C          66.1319   91.9198   13.1806 C.3     1  UNL1        0.0995
     30 C          66.5468   92.8294   12.0624 C.ar    1  UNL1       -0.0030
     31 C          67.2923   92.2773   10.8838 C.ar    1  UNL1        0.0178
     32 C          67.7072   93.1869    9.7655 C.ar    1  UNL1        0.0986
     33 N          67.3766   94.6487    9.8259 N.ar    1  UNL1       -0.2423
     34 C          66.6310   95.2009   11.0046 C.ar    1  UNL1        0.0986
     35 C          66.2161   94.2913   12.1228 C.ar    1  UNL1        0.0178
     36 C          64.1943   91.3399   14.8114 C.3     1  UNL1        0.0995
     37 C          63.9873   89.9161   15.2357 C.ar    1  UNL1       -0.0030
     38 C          64.5489   88.7978   14.4086 C.ar    1  UNL1        0.0178
     39 C          64.3418   87.3740   14.8330 C.ar    1  UNL1        0.0986
     40 N          63.5732   87.0686   16.0844 N.ar    1  UNL1       -0.2423
     41 C          63.0117   88.1869   16.9114 C.ar    1  UNL1        0.0986
     42 C          63.2187   89.6107   16.4871 C.ar    1  UNL1        0.0178
@<TRIPOS>BOND
     1    13    14   ar
     2    14    15   ar
     3    15    16   ar
     4    16    17   ar
     5    17    18   ar
     6    17    19    1
     7    19    20    1
     8    20    21    1
     9    21    12    1
    10    12     1    1
    11     1    24    1
    12    24    25    1
    13    25    26    1
    14    26    27    1
    15    27    28    1
    16    28    29    1
    17    29    30    1
    18    30    31   ar
    19    31    32   ar
    20    32    33   ar
    21    33    34   ar
    22    34    35   ar
    23    28    36    1
    24    36    37    1
    25    37    38   ar
    26    38    39   ar
    27    39    40   ar
    28    40    41   ar
    29    41    42   ar
    30     2     1    1
    31     2     3    1
    32     3     4    1
    33     4     5    1
    34     5     6    1
    35     6     7   ar
    36     7     8   ar
    37     8     9   ar
    38     9    10   ar
    39    10    11   ar
    40    21    22    1
    41    18    13   ar
    42    35    30   ar
    43    42    37   ar
    44    11     2    1
    45    22    16    1
    46    11     6   ar
    47    20    23    1
@<TRIPOS>MOLECULE
*****
 42 47 0 0 0
SMALL
GASTEIGER

@<TRIPOS>ATOM
      1 N          61.7650   87.4021   11.1150 N.3     1  UNL1       -0.2679
      2 C          60.9262   87.1161    9.9049 C.3     1  UNL1        0.0978
      3 C          59.5561   87.7145    9.7835 C.3     1  UNL1        0.0224
      4 C          58.7173   87.4284    8.5732 C.3     1  UNL1        0.0065
      5 C          59.2486   86.5439    7.4845 C.3     1  UNL1        0.0277
      6 C          60.6187   85.9455    7.6059 C.ar    1  UNL1       -0.0073
      7 C          61.1500   85.0611    6.5171 C.ar    1  UNL1       -0.0015
      8 C          62.5201   84.4627    6.6385 C.ar    1  UNL1        0.0203
      9 C          63.3589   84.7488    7.8487 C.ar    1  UNL1        0.0985
     10 N          62.8276   85.6332    8.9374 N.ar    1  UNL1       -0.2471
     11 C          61.4575   86.2316    8.8160 C.ar    1  UNL1        0.0695
     12 C          62.9359   86.5229   11.4409 C.3     1  UNL1        0.0886
     13 C          62.2760   80.0466   13.6481 C.ar    1  UNL1       -0.0003
     14 C          62.6821   80.0343   12.2042 C.ar    1  UNL1       -0.0003
     15 C          62.8953   81.3271   11.4740 C.ar    1  UNL1       -0.0045
     16 C          62.7024   82.6322   12.1877 C.ar    1  UNL1       -0.0234
     17 C          62.2963   82.6445   13.6316 C.ar    1  UNL1       -0.0103
     18 C          62.0831   81.3517   14.3618 C.ar    1  UNL1       -0.0032
     19 C          62.1034   83.9497   14.3453 C.3     1  UNL1        0.0953
     20 N          62.3166   85.2425   13.6151 N.3     1  UNL1       -0.2934
     21 C          62.7227   85.2301   12.1711 C.3     1  UNL1        0.0748
     22 C          62.9156   83.9250   11.4575 C.3     1  UNL1        0.0432
     23 H          63.0425   85.7501   14.1208 H       1  UNL1        0.1236
     24 C          61.4330   88.5674   11.9993 C.3     1  UNL1        0.0725
     25 C          61.8996   89.9447   11.6318 C.3     1  UNL1        0.0188
     26 C          63.3514   90.3021   11.7532 C.3     1  UNL1        0.0188
     27 C          63.7539   91.5965   12.3957 C.3     1  UNL1        0.0727
     28 N          64.7404   91.5980   13.5257 N.3     1  UNL1       -0.2652
     29 C          64.2856   91.2778   14.9187 C.3     1  UNL1        0.0995
     30 C          64.0320   89.8539   15.3163 C.ar    1  UNL1       -0.0030
     31 C          64.5801   88.7336   14.4830 C.ar    1  UNL1        0.0178
     32 C          64.3265   87.3096   14.8805 C.ar    1  UNL1        0.0986
     33 N          63.5249   87.0060   16.1114 N.ar    1  UNL1       -0.2423
     34 C          62.9769   88.1263   16.9448 C.ar    1  UNL1        0.0986
     35 C          63.2304   89.5502   16.5472 C.ar    1  UNL1        0.0178
     36 C          66.1817   91.9196   13.2625 C.3     1  UNL1        0.0995
     37 C          66.5528   92.8239   12.1248 C.ar    1  UNL1       -0.0030
     38 C          66.2302   94.2872   12.1939 C.ar    1  UNL1        0.0178
     39 C          66.6013   95.1915   11.0561 C.ar    1  UNL1        0.0986
     40 N          67.2949   94.6326    9.8493 N.ar    1  UNL1       -0.2423
     41 C          67.6175   93.1693    9.7802 C.ar    1  UNL1        0.0986
     42 C          67.2465   92.2650   10.9179 C.ar    1  UNL1        0.0178
@<TRIPOS>BOND
     1    13    14   ar
     2    14    15   ar
     3    15    16   ar
     4    16    17   ar
     5    17    18   ar
     6    17    19    1
     7    19    20    1
     8    20    21    1
     9    21    12    1
    10    12     1    1
    11     1    24    1
    12    24    25    1
    13    25    26    1
    14    26    27    1
    15    27    28    1
    16    28    29    1
    17    29    30    1
    18    30    31   ar
    19    31    32   ar
    20    32    33   ar
    21    33    34   ar
    22    34    35   ar
    23    28    36    1
    24    36    37    1
    25    37    38   ar
    26    38    39   ar
    27    39    40   ar
    28    40    41   ar
    29    41    42   ar
    30     2     1    1
    31     2     3    1
    32     3     4    1
    33     4     5    1
    34     5     6    1
    35     6     7   ar
    36     7     8   ar
    37     8     9   ar
    38     9    10   ar
    39    10    11   ar
    40    21    22    1
    41    18    13   ar
    42    35    30   ar
    43    42    37   ar
    44    11     2    1
    45    22    16    1
    46    11     6   ar
    47    20    23    1
@<TRIPOS>MOLECULE
*****
 42 47 0 0 0
SMALL
GASTEIGER

@<TRIPOS>ATOM
      1 N          61.6091   88.0045   10.8910 N.3     1  UNL1       -0.2679
      2 C          60.8219   87.5196    9.7098 C.3     1  UNL1        0.0978
      3 C          59.4406   88.0488    9.4608 C.3     1  UNL1        0.0224
      4 C          58.6534   87.5640    8.2796 C.3     1  UNL1        0.0065
      5 C          59.2474   86.5500    7.3475 C.3     1  UNL1        0.0277
      6 C          60.6287   86.0208    7.5965 C.ar    1  UNL1       -0.0073
      7 C          61.2227   85.0068    6.6644 C.ar    1  UNL1       -0.0015
      8 C          62.6040   84.4776    6.9135 C.ar    1  UNL1        0.0203
      9 C          63.3912   84.9624    8.0946 C.ar    1  UNL1        0.0985
     10 N          62.7972   85.9764    9.0267 N.ar    1  UNL1       -0.2471
     11 C          61.4159   86.5056    8.7777 C.ar    1  UNL1        0.0695
     12 C          61.4371   89.4119   11.3804 C.3     1  UNL1        0.0886
     13 C          66.9116   93.0436   13.4029 C.ar    1  UNL1       -0.0003
     14 C          66.3954   92.2460   14.5637 C.ar    1  UNL1       -0.0003
     15 C          65.1972   91.3602   14.3913 C.ar    1  UNL1       -0.0045
     16 C          64.5153   91.2719   13.0582 C.ar    1  UNL1       -0.0234
     17 C          65.0316   92.0694   11.8975 C.ar    1  UNL1       -0.0103
     18 C          66.2298   92.9553   12.0698 C.ar    1  UNL1       -0.0032
     19 C          64.3497   91.9811   10.5643 C.3     1  UNL1        0.0953
     20 N          63.1515   91.0953   10.3920 N.3     1  UNL1       -0.2934
     21 C          62.6353   90.2978   11.5528 C.3     1  UNL1        0.0748
     22 C          63.3172   90.3861   12.8859 C.3     1  UNL1        0.0432
     23 H          63.3820   90.4282    9.6556 H       1  UNL1        0.1236
     24 C          62.5685   87.0819   11.5827 C.3     1  UNL1        0.0725
     25 C          62.0613   85.8442   12.2616 C.3     1  UNL1        0.0188
     26 C          62.6367   84.5050   11.9072 C.3     1  UNL1        0.0188
     27 C          64.0376   84.1585   12.3165 C.3     1  UNL1        0.0727
     28 N          64.4338   84.2212   13.7619 N.3     1  UNL1       -0.2652
     29 C          64.2084   83.0361   14.6534 C.3     1  UNL1        0.0995
     30 C          63.2312   81.9711   14.2525 C.ar    1  UNL1       -0.0030
     31 C          63.7121   80.7417   13.5403 C.ar    1  UNL1        0.0178
     32 C          62.7348   79.6767   13.1394 C.ar    1  UNL1        0.0986
     33 N          61.2768   79.8410   13.4507 N.ar    1  UNL1       -0.2423
     34 C          60.7959   81.0704   14.1630 C.ar    1  UNL1        0.0986
     35 C          61.7732   82.1354   14.5639 C.ar    1  UNL1        0.0178
     36 C          65.0555   85.4690   14.3157 C.3     1  UNL1        0.0995
     37 C          64.2833   86.3322   15.2689 C.ar    1  UNL1       -0.0030
     38 C          63.5511   85.7091   16.4203 C.ar    1  UNL1        0.0178
     39 C          62.7790   86.5724   17.3735 C.ar    1  UNL1        0.0986
     40 N          62.7390   88.0587   17.1753 N.ar    1  UNL1       -0.2423
     41 C          63.4712   88.6818   16.0239 C.ar    1  UNL1        0.0986
     42 C          64.2433   87.8185   15.0707 C.ar    1  UNL1        0.0178
@<TRIPOS>BOND
     1    13    14   ar
     2    14    15   ar
     3    15    16   ar
     4    16    17   ar
     5    17    18   ar
     6    17    19    1
     7    19    20    1
     8    20    21    1
     9    21    12    1
    10    12     1    1
    11     1    24    1
    12    24    25    1
    13    25    26    1
    14    26    27    1
    15    27    28    1
    16    28    29    1
    17    29    30    1
    18    30    31   ar
    19    31    32   ar
    20    32    33   ar
    21    33    34   ar
    22    34    35   ar
    23    28    36    1
    24    36    37    1
    25    37    38   ar
    26    38    39   ar
    27    39    40   ar
    28    40    41   ar
    29    41    42   ar
    30     2     1    1
    31     2     3    1
    32     3     4    1
    33     4     5    1
    34     5     6    1
    35     6     7   ar
    36     7     8   ar
    37     8     9   ar
    38     9    10   ar
    39    10    11   ar
    40    21    22    1
    41    18    13   ar
    42    35    30   ar
    43    42    37   ar
    44    11     2    1
    45    22    16    1
    46    11     6   ar
    47    20    23    1
@<TRIPOS>MOLECULE
*****
 42 47 0 0 0
SMALL
GASTEIGER

@<TRIPOS>ATOM
      1 N          61.6177   87.9342   10.9386 N.3     1  UNL1       -0.2679
      2 C          60.8297   87.4232    9.7691 C.3     1  UNL1        0.0978
      3 C          59.4216   87.8921    9.5511 C.3     1  UNL1        0.0224
      4 C          58.6336   87.3810    8.3815 C.3     1  UNL1        0.0065
      5 C          59.2536   86.4011    7.4300 C.3     1  UNL1        0.0277
      6 C          60.6616   85.9322    7.6481 C.ar    1  UNL1       -0.0073
      7 C          61.2816   84.9523    6.6966 C.ar    1  UNL1       -0.0015
      8 C          62.6896   84.4833    6.9147 C.ar    1  UNL1        0.0203
      9 C          63.4777   84.9944    8.0842 C.ar    1  UNL1        0.0985
     10 N          62.8577   85.9743    9.0356 N.ar    1  UNL1       -0.2471
     11 C          61.4497   86.4432    8.8176 C.ar    1  UNL1        0.0695
     12 C          61.4311   89.3461   11.4094 C.3     1  UNL1        0.0886
     13 C          66.9036   93.0338   13.3336 C.ar    1  UNL1       -0.0003
     14 C          66.4360   92.2068   14.4943 C.ar    1  UNL1       -0.0003
     15 C          65.2480   91.3039   14.3417 C.ar    1  UNL1       -0.0045
     16 C          64.5275   91.2279   13.0282 C.ar    1  UNL1       -0.0234
     17 C          64.9952   92.0549   11.8675 C.ar    1  UNL1       -0.0103
     18 C          66.1832   92.9578   12.0201 C.ar    1  UNL1       -0.0032
     19 C          64.2747   91.9790   10.5539 C.3     1  UNL1        0.0953
     20 N          63.0867   91.0760   10.4012 N.3     1  UNL1       -0.2934
     21 C          62.6191   90.2490   11.5621 C.3     1  UNL1        0.0748
     22 C          63.3395   90.3250   12.8756 C.3     1  UNL1        0.0432
     23 H          63.3058   90.4263    9.6461 H       1  UNL1        0.1236
     24 C          62.5925   87.0333   11.6374 C.3     1  UNL1        0.0725
     25 C          62.1161   85.7587   12.2687 C.3     1  UNL1        0.0188
     26 C          62.7449   84.4517   11.8863 C.3     1  UNL1        0.0188
     27 C          64.1495   84.1420   12.3124 C.3     1  UNL1        0.0727
     28 N          64.5187   84.1835   13.7656 N.3     1  UNL1       -0.2652
     29 C          65.1153   85.4282   14.3527 C.3     1  UNL1        0.0995
     30 C          64.3121   86.2709   15.2986 C.ar    1  UNL1       -0.0030
     31 C          64.2574   87.7587   15.1160 C.ar    1  UNL1        0.0178
     32 C          63.4542   88.6014   16.0619 C.ar    1  UNL1        0.0986
     33 N          62.7057   87.9562   17.1904 N.ar    1  UNL1       -0.2423
     34 C          62.7604   86.4684   17.3730 C.ar    1  UNL1        0.0986
     35 C          63.5636   85.6257   16.4271 C.ar    1  UNL1        0.0178
     36 C          64.2913   82.9801   14.6319 C.3     1  UNL1        0.0995
     37 C          63.2785   81.9486   14.2318 C.ar    1  UNL1       -0.0030
     38 C          61.8341   82.1375   14.5895 C.ar    1  UNL1        0.0178
     39 C          60.8212   81.1059   14.1894 C.ar    1  UNL1        0.0986
     40 N          61.2528   79.8855   13.4316 N.ar    1  UNL1       -0.2423
     41 C          62.6972   79.6966   13.0739 C.ar    1  UNL1        0.0986
     42 C          63.7101   80.7281   13.4740 C.ar    1  UNL1        0.0178
@<TRIPOS>BOND
     1    13    14   ar
     2    14    15   ar
     3    15    16   ar
     4    16    17   ar
     5    17    18   ar
     6    17    19    1
     7    19    20    1
     8    20    21    1
     9    21    12    1
    10    12     1    1
    11     1    24    1
    12    24    25    1
    13    25    26    1
    14    26    27    1
    15    27    28    1
    16    28    29    1
    17    29    30    1
    18    30    31   ar
    19    31    32   ar
    20    32    33   ar
    21    33    34   ar
    22    34    35   ar
    23    28    36    1
    24    36    37    1
    25    37    38   ar
    26    38    39   ar
    27    39    40   ar
    28    40    41   ar
    29    41    42   ar
    30     2     1    1
    31     2     3    1
    32     3     4    1
    33     4     5    1
    34     5     6    1
    35     6     7   ar
    36     7     8   ar
    37     8     9   ar
    38     9    10   ar
    39    10    11   ar
    40    21    22    1
    41    18    13   ar
    42    35    30   ar
    43    42    37   ar
    44    11     2    1
    45    22    16    1
    46    11     6   ar
    47    20    23    1
@<TRIPOS>MOLECULE
*****
 42 47 0 0 0
SMALL
GASTEIGER

@<TRIPOS>ATOM
      1 N          62.2646   87.6975   10.6509 N.3     1  UNL1       -0.2679
      2 C          61.1868   87.2921    9.6896 C.3     1  UNL1        0.0978
      3 C          59.7969   87.8329    9.8497 C.3     1  UNL1        0.0224
      4 C          58.7191   87.4275    8.8884 C.3     1  UNL1        0.0065
      5 C          59.0313   86.4813    7.7671 C.3     1  UNL1        0.0277
      6 C          60.4212   85.9406    7.6070 C.ar    1  UNL1       -0.0073
      7 C          60.7334   84.9944    6.4858 C.ar    1  UNL1       -0.0015
      8 C          62.1233   84.4537    6.3257 C.ar    1  UNL1        0.0203
      9 C          63.2011   84.8591    7.2869 C.ar    1  UNL1        0.0985
     10 N          62.8889   85.8052    8.4082 N.ar    1  UNL1       -0.2471
     11 C          61.4990   86.3460    8.5683 C.ar    1  UNL1        0.0695
     12 C          62.4470   86.9435   11.9348 C.3     1  UNL1        0.0886
     13 C          62.6998   80.1553   12.9863 C.ar    1  UNL1       -0.0003
     14 C          62.0295   80.8090   14.1581 C.ar    1  UNL1       -0.0003
     15 C          61.8448   82.2974   14.1821 C.ar    1  UNL1       -0.0045
     16 C          62.3305   83.1321   13.0344 C.ar    1  UNL1       -0.0234
     17 C          63.0009   82.4784   11.8626 C.ar    1  UNL1       -0.0103
     18 C          63.1855   80.9900   11.8385 C.ar    1  UNL1       -0.0032
     19 C          63.4867   83.3130   10.7147 C.3     1  UNL1        0.0953
     20 N          63.3020   84.8014   10.7388 N.3     1  UNL1       -0.2934
     21 C          62.6316   85.4552   11.9107 C.3     1  UNL1        0.0748
     22 C          62.1459   84.6205   13.0585 C.3     1  UNL1        0.0432
     23 H          62.7540   85.0435    9.9133 H       1  UNL1        0.1236
     24 C          63.1601   88.8569   10.3283 C.3     1  UNL1        0.0725
     25 C          62.7855   90.2400   10.7717 C.3     1  UNL1        0.0188
     26 C          63.4428   90.8451   11.9766 C.3     1  UNL1        0.0188
     27 C          63.0072   90.4372   13.3528 C.3     1  UNL1        0.0727
     28 N          64.0322   90.1009   14.3951 N.3     1  UNL1       -0.2652
     29 C          64.5422   91.1684   15.3172 C.3     1  UNL1        0.0995
     30 C          65.9048   91.7574   15.1018 C.ar    1  UNL1       -0.0030
     31 C          66.6518   91.4749   13.8321 C.ar    1  UNL1        0.0178
     32 C          68.0143   92.0640   13.6166 C.ar    1  UNL1        0.0986
     33 N          68.6300   92.9354   14.6709 N.ar    1  UNL1       -0.2423
     34 C          67.8830   93.2179   15.9406 C.ar    1  UNL1        0.0986
     35 C          66.5204   92.6289   16.1560 C.ar    1  UNL1        0.0178
     36 C          64.5472   88.6972   14.5151 C.3     1  UNL1        0.0995
     37 C          63.9397   87.7584   15.5148 C.ar    1  UNL1       -0.0030
     38 C          63.1531   88.3005   16.6713 C.ar    1  UNL1        0.0178
     39 C          62.5455   87.3616   17.6710 C.ar    1  UNL1        0.0986
     40 N          62.7246   85.8806   17.5143 N.ar    1  UNL1       -0.2423
     41 C          63.5112   85.3385   16.3578 C.ar    1  UNL1        0.0986
     42 C          64.1187   86.2773   15.3581 C.ar    1  UNL1        0.0178
@<TRIPOS>BOND
     1    13    14   ar
     2    14    15   ar
     3    15    16   ar
     4    16    17   ar
     5    17    18   ar
     6    17    19    1
     7    19    20    1
     8    20    21    1
     9    21    12    1
    10    12     1    1
    11     1    24    1
    12    24    25    1
    13    25    26    1
    14    26    27    1
    15    27    28    1
    16    28    29    1
    17    29    30    1
    18    30    31   ar
    19    31    32   ar
    20    32    33   ar
    21    33    34   ar
    22    34    35   ar
    23    28    36    1
    24    36    37    1
    25    37    38   ar
    26    38    39   ar
    27    39    40   ar
    28    40    41   ar
    29    41    42   ar
    30     2     1    1
    31     2     3    1
    32     3     4    1
    33     4     5    1
    34     5     6    1
    35     6     7   ar
    36     7     8   ar
    37     8     9   ar
    38     9    10   ar
    39    10    11   ar
    40    21    22    1
    41    18    13   ar
    42    35    30   ar
    43    42    37   ar
    44    11     2    1
    45    22    16    1
    46    11     6   ar
    47    20    23    1
@<TRIPOS>MOLECULE
*****
 42 47 0 0 0
SMALL
GASTEIGER

@<TRIPOS>ATOM
      1 N          62.0648   88.4732   10.4564 N.3     1  UNL1       -0.2679
      2 C          61.1263   87.8922    9.4407 C.3     1  UNL1        0.0978
      3 C          59.7630   88.4886    9.2516 C.3     1  UNL1        0.0224
      4 C          58.8245   87.9076    8.2358 C.3     1  UNL1        0.0065
      5 C          59.2493   86.7301    7.4093 C.3     1  UNL1        0.0277
      6 C          60.6126   86.1337    7.5984 C.ar    1  UNL1       -0.0073
      7 C          61.0373   84.9563    6.7719 C.ar    1  UNL1       -0.0015
      8 C          62.4006   84.3598    6.9611 C.ar    1  UNL1        0.0203
      9 C          63.3391   84.9408    7.9768 C.ar    1  UNL1        0.0985
     10 N          62.9143   86.1182    8.8033 N.ar    1  UNL1       -0.2471
     11 C          61.5510   86.7147    8.6141 C.ar    1  UNL1        0.0695
     12 C          61.9594   88.0637   11.8956 C.3     1  UNL1        0.0886
     13 C          64.0429   81.6257   13.1048 C.ar    1  UNL1       -0.0003
     14 C          63.0214   81.6131   12.0065 C.ar    1  UNL1       -0.0003
     15 C          62.4004   82.8982   11.5450 C.ar    1  UNL1       -0.0045
     16 C          62.8009   84.1959   12.1818 C.ar    1  UNL1       -0.0234
     17 C          63.8224   84.2085   13.2801 C.ar    1  UNL1       -0.0103
     18 C          64.4434   82.9234   13.7416 C.ar    1  UNL1       -0.0032
     19 C          64.2230   85.5062   13.9170 C.3     1  UNL1        0.0953
     20 N          63.6020   86.7913   13.4555 N.3     1  UNL1       -0.2934
     21 C          62.5804   86.7786   12.3571 C.3     1  UNL1        0.0748
     22 C          62.1799   85.4809   11.7203 C.3     1  UNL1        0.0432
     23 H          64.3650   87.3908   13.1411 H       1  UNL1        0.1236
     24 C          63.1086   89.4636   10.0329 C.3     1  UNL1        0.0725
     25 C          62.8584   90.9334   10.1973 C.3     1  UNL1        0.0188
     26 C          63.6138   91.7116   11.2336 C.3     1  UNL1        0.0188
     27 C          65.0390   92.1071   10.9833 C.3     1  UNL1        0.0727
     28 N          65.8647   92.6806   12.0965 N.3     1  UNL1       -0.2652
     29 C          66.2240   94.1369   12.0904 C.3     1  UNL1        0.0995
     30 C          66.3980   94.8610   10.7883 C.ar    1  UNL1       -0.0030
     31 C          67.3651   94.3428    9.7654 C.ar    1  UNL1        0.0178
     32 C          67.5392   95.0669    8.4633 C.ar    1  UNL1        0.0986
     33 N          66.7461   96.3091    8.1841 N.ar    1  UNL1       -0.2423
     34 C          65.7790   96.8272    9.2069 C.ar    1  UNL1        0.0986
     35 C          65.6050   96.1032   10.5090 C.ar    1  UNL1        0.0178
     36 C          66.3311   91.7978   13.2160 C.3     1  UNL1        0.0995
     37 C          65.4214   91.5107   14.3735 C.ar    1  UNL1       -0.0030
     38 C          65.4748   92.3714   15.6009 C.ar    1  UNL1        0.0178
     39 C          64.5650   92.0842   16.7585 C.ar    1  UNL1        0.0986
     40 N          63.6019   90.9364   16.6887 N.ar    1  UNL1       -0.2423
     41 C          63.5485   90.0757   15.4614 C.ar    1  UNL1        0.0986
     42 C          64.4582   90.3628   14.3038 C.ar    1  UNL1        0.0178
@<TRIPOS>BOND
     1    13    14   ar
     2    14    15   ar
     3    15    16   ar
     4    16    17   ar
     5    17    18   ar
     6    17    19    1
     7    19    20    1
     8    20    21    1
     9    21    12    1
    10    12     1    1
    11     1    24    1
    12    24    25    1
    13    25    26    1
    14    26    27    1
    15    27    28    1
    16    28    29    1
    17    29    30    1
    18    30    31   ar
    19    31    32   ar
    20    32    33   ar
    21    33    34   ar
    22    34    35   ar
    23    28    36    1
    24    36    37    1
    25    37    38   ar
    26    38    39   ar
    27    39    40   ar
    28    40    41   ar
    29    41    42   ar
    30     2     1    1
    31     2     3    1
    32     3     4    1
    33     4     5    1
    34     5     6    1
    35     6     7   ar
    36     7     8   ar
    37     8     9   ar
    38     9    10   ar
    39    10    11   ar
    40    21    22    1
    41    18    13   ar
    42    35    30   ar
    43    42    37   ar
    44    11     2    1
    45    22    16    1
    46    11     6   ar
    47    20    23    1
@<TRIPOS>MOLECULE
*****
 42 47 0 0 0
SMALL
GASTEIGER

@<TRIPOS>ATOM
      1 N          63.4643   90.2960   12.7218 N.3     1  UNL1       -0.2679
      2 C          64.4183   91.4031   12.3836 C.3     1  UNL1        0.0978
      3 C          64.5579   91.8651   10.9634 C.3     1  UNL1        0.0224
      4 C          65.5118   92.9722   10.6252 C.3     1  UNL1        0.0065
      5 C          66.3262   93.6172   11.7072 C.3     1  UNL1        0.0277
      6 C          66.1866   93.1552   13.1274 C.ar    1  UNL1       -0.0073
      7 C          67.0009   93.8002   14.2094 C.ar    1  UNL1       -0.0015
      8 C          66.8614   93.3381   15.6296 C.ar    1  UNL1        0.0203
      9 C          65.9074   92.2311   15.9678 C.ar    1  UNL1        0.0985
     10 N          65.0931   91.5861   14.8858 N.ar    1  UNL1       -0.2471
     11 C          65.2327   92.0481   13.4656 C.ar    1  UNL1        0.0695
     12 C          61.9899   90.4903   12.5255 C.3     1  UNL1        0.0886
     13 C          58.8174   87.6356    7.1370 C.ar    1  UNL1       -0.0003
     14 C          59.3492   88.9802    6.7380 C.ar    1  UNL1       -0.0003
     15 C          60.0900   89.8200    7.7359 C.ar    1  UNL1       -0.0045
     16 C          60.2991   89.3153    9.1328 C.ar    1  UNL1       -0.0234
     17 C          59.7674   87.9707    9.5319 C.ar    1  UNL1       -0.0103
     18 C          59.0265   87.1309    8.5340 C.ar    1  UNL1       -0.0032
     19 C          59.9765   87.4659   10.9289 C.3     1  UNL1        0.0953
     20 N          60.7173   88.3058   11.9268 N.3     1  UNL1       -0.2934
     21 C          61.2491   89.6504   11.5276 C.3     1  UNL1        0.0748
     22 C          61.0400   90.1552   10.1307 C.3     1  UNL1        0.0432
     23 H          61.5161   87.7545   12.2403 H       1  UNL1        0.1236
     24 C          63.9847   88.9947   13.2563 C.3     1  UNL1        0.0725
     25 C          63.8418   88.6718   14.7141 C.3     1  UNL1        0.0188
     26 C          64.1608   87.2932   15.2117 C.3     1  UNL1        0.0188
     27 C          64.5003   86.2041   14.2376 C.3     1  UNL1        0.0727
     28 N          63.5512   85.0613   14.0296 N.3     1  UNL1       -0.2652
     29 C          63.6609   83.8309   14.8805 C.3     1  UNL1        0.0995
     30 C          63.0567   82.5398   14.4135 C.ar    1  UNL1       -0.0030
     31 C          61.5883   82.2911   14.5919 C.ar    1  UNL1        0.0178
     32 C          60.9841   81.0000   14.1250 C.ar    1  UNL1        0.0986
     33 N          61.8484   79.9576   13.4796 N.ar    1  UNL1       -0.2423
     34 C          63.3168   80.2063   13.3013 C.ar    1  UNL1        0.0986
     35 C          63.9210   81.4974   13.7682 C.ar    1  UNL1        0.0178
     36 C          62.4923   85.1490   12.9707 C.3     1  UNL1        0.0995
     37 C          62.8389   84.8686   11.5385 C.ar    1  UNL1       -0.0030
     38 C          63.6487   83.6561   11.1864 C.ar    1  UNL1        0.0178
     39 C          63.9953   83.3757    9.7541 C.ar    1  UNL1        0.0986
     40 N          63.5320   84.3078    8.6740 N.ar    1  UNL1       -0.2423
     41 C          62.7221   85.5203    9.0262 C.ar    1  UNL1        0.0986
     42 C          62.3756   85.8007   10.4584 C.ar    1  UNL1        0.0178
@<TRIPOS>BOND
     1    13    14   ar
     2    14    15   ar
     3    15    16   ar
     4    16    17   ar
     5    17    18   ar
     6    17    19    1
     7    19    20    1
     8    20    21    1
     9    21    12    1
    10    12     1    1
    11     1    24    1
    12    24    25    1
    13    25    26    1
    14    26    27    1
    15    27    28    1
    16    28    29    1
    17    29    30    1
    18    30    31   ar
    19    31    32   ar
    20    32    33   ar
    21    33    34   ar
    22    34    35   ar
    23    28    36    1
    24    36    37    1
    25    37    38   ar
    26    38    39   ar
    27    39    40   ar
    28    40    41   ar
    29    41    42   ar
    30     2     1    1
    31     2     3    1
    32     3     4    1
    33     4     5    1
    34     5     6    1
    35     6     7   ar
    36     7     8   ar
    37     8     9   ar
    38     9    10   ar
    39    10    11   ar
    40    21    22    1
    41    18    13   ar
    42    35    30   ar
    43    42    37   ar
    44    11     2    1
    45    22    16    1
    46    11     6   ar
    47    20    23    1
