@<TRIPOS>MOLECULE
*****
 44 48 0 0 0
SMALL
GASTEIGER

@<TRIPOS>ATOM
      1 C          60.3007   88.9811   10.8378 C.3     1  UNL1        0.1443
      2 O          59.5669   88.2979   11.9535 O.3     1  UNL1       -0.3813
      3 H          59.6674   88.8126   12.7695 H       1  UNL1        0.2105
      4 C          60.3001   88.3825    9.4625 C.3     1  UNL1        0.1041
      5 C          59.4037   89.1845    7.1596 C.2     1  UNL1        0.2527
      6 O          58.2653   88.2133    7.2646 O.2     1  UNL1       -0.2724
      7 N          60.4211   89.2691    8.2586 N.am    1  UNL1       -0.3012
      8 H          61.1682   89.9064    8.1897 H       1  UNL1        0.1495
      9 C          59.5246   90.0710    5.9557 C.3     1  UNL1        0.2269
     10 C          58.5466   91.9330    4.4304 C.3     1  UNL1        0.1748
     11 O          58.3863   90.9672    5.5668 O.3     1  UNL1       -0.3418
     12 C          60.1786   86.8973    9.2911 C.3     1  UNL1        0.0484
     13 C          61.3530   86.0103    9.5809 C.ar    1  UNL1       -0.0203
     14 C          62.2094   85.5085    8.4564 C.ar    1  UNL1       -0.0042
     15 C          63.3838   84.6215    8.7463 C.ar    1  UNL1       -0.0002
     16 C          63.7017   84.2363   10.1606 C.ar    1  UNL1        0.0046
     17 C          62.8452   84.7381   11.2853 C.ar    1  UNL1        0.0533
     18 C          61.6709   85.6251   10.9954 C.ar    1  UNL1        0.0004
     19 C          63.1632   84.3529   12.6996 C.ar    1  UNL1        0.2298
     20 N          62.3095   84.6290   13.9017 N.ar    1  UNL1       -0.2065
     21 C          63.0093   84.0707   15.1053 C.ar    1  UNL1        0.1427
     22 C          64.2954   83.4495   14.6470 C.ar    1  UNL1        0.2021
     23 O          64.3905   83.6239   13.1602 O.2     1  UNL1       -0.4314
     24 C          61.0350   90.2631   11.0976 C.3     1  UNL1        0.1001
     25 N          62.5347   90.2755   11.1275 N.3     1  UNL1       -0.2928
     26 H          62.8386   90.9131   10.3917 H       1  UNL1        0.1236
     27 C          63.2565   90.6821   12.3781 C.3     1  UNL1        0.0849
     28 C          62.9035   90.0440   13.6889 C.3     1  UNL1        0.0604
     29 C          63.6252   90.4505   14.9394 C.3     1  UNL1        0.1363
     30 C          62.6421   89.4069   15.3804 C.3     1  UNL1        0.0402
     31 C          63.1259   89.5481   16.7932 C.3     1  UNL1        0.0072
     32 C          64.1091   90.5917   16.3522 C.3     1  UNL1        0.0402
     33 O          64.7000   91.4950   14.8791 O.3     1  UNL1       -0.4676
     34 C          65.0531   92.1331   13.5682 C.ar    1  UNL1        0.2216
     35 N          66.1280   93.1776   13.5080 N.ar    1  UNL1       -0.2107
     36 C          66.4810   93.8157   12.1971 C.ar    1  UNL1        0.0977
     37 C          65.7592   93.4092   10.9466 C.ar    1  UNL1       -0.0031
     38 C          64.6844   92.3646   11.0069 C.ar    1  UNL1       -0.0011
     39 C          64.3313   91.7266   12.3178 C.ar    1  UNL1        0.0449
     40 C          66.1122   94.0472    9.6358 C.3     1  UNL1        0.0279
     41 C          66.6514   95.4467    9.6040 C.3     1  UNL1        0.0041
     42 C          65.3277   95.9674   10.0799 C.3     1  UNL1        0.0003
     43 C          67.9752   94.9258    9.1280 C.3     1  UNL1        0.0003
     44 C          67.1905   96.8460    9.5721 C.3     1  UNL1        0.0003
@<TRIPOS>BOND
     1    10    11    1
     2    11     9    1
     3     9     5    1
     4     5     6    2
     5     5     7   am
     6     7     4    1
     7     4    12    1
     8    12    13    1
     9    13    14   ar
    10    14    15   ar
    11    15    16   ar
    12    16    17   ar
    13    17    19    1
    14    19    20   ar
    15    20    21   ar
    16    21    22   ar
    17    22    23   ar
    18    17    18   ar
    19     4     1    1
    20     1     2    1
    21     1    24    1
    22    24    25    1
    23    27    25    1
    24    27    28    1
    25    28    29    1
    26    29    30    1
    27    30    31    1
    28    31    32    1
    29    29    33    1
    30    33    34    1
    31    34    35   ar
    32    35    36   ar
    33    36    37   ar
    34    37    40    1
    35    40    41    1
    36    41    42    1
    37    41    43    1
    38    41    44    1
    39    37    38   ar
    40    38    39   ar
    41    18    13   ar
    42    39    27    1
    43    23    19   ar
    44    32    29    1
    45    39    34   ar
    46     7     8    1
    47     2     3    1
    48    25    26    1
@<TRIPOS>MOLECULE
*****
 44 48 0 0 0
SMALL
GASTEIGER

@<TRIPOS>ATOM
      1 C          60.7621   89.6074   10.9601 C.3     1  UNL1        0.1443
      2 O          60.1695   89.2254   12.2841 O.3     1  UNL1       -0.3813
      3 H          60.5108   89.8160   12.9736 H       1  UNL1        0.2105
      4 C          60.3922   88.8425    9.7240 C.3     1  UNL1        0.1041
      5 C          59.4339   89.0157    7.3154 C.2     1  UNL1        0.2527
      6 O          58.6090   87.7860    7.5551 O.2     1  UNL1       -0.2724
      7 N          60.3255   89.5439    8.3998 N.am    1  UNL1       -0.3012
      8 H          60.8669   90.3510    8.2425 H       1  UNL1        0.1495
      9 C          59.3672   89.7171    5.9912 C.3     1  UNL1        0.2269
     10 C          58.6373   91.8706    4.7342 C.3     1  UNL1        0.1748
     11 O          58.3787   90.8252    5.7783 O.3     1  UNL1       -0.3418
     12 C          60.0889   87.3762    9.8122 C.3     1  UNL1        0.0484
     13 C          61.2022   86.3740    9.7335 C.ar    1  UNL1       -0.0203
     14 C          61.9195   86.1502    8.4354 C.ar    1  UNL1       -0.0042
     15 C          63.0328   85.1480    8.3567 C.ar    1  UNL1       -0.0002
     16 C          63.4287   84.3695    9.5762 C.ar    1  UNL1        0.0046
     17 C          62.7113   84.5933   10.8745 C.ar    1  UNL1        0.0533
     18 C          61.5980   85.5955   10.9531 C.ar    1  UNL1        0.0004
     19 C          63.1072   83.8148   12.0940 C.ar    1  UNL1        0.2298
     20 N          64.0429   84.2787   13.1707 N.ar    1  UNL1       -0.2065
     21 C          64.1509   83.1864   14.1931 C.ar    1  UNL1        0.1427
     22 C          63.2821   82.0475   13.7482 C.ar    1  UNL1        0.2021
     23 O          62.6371   82.4360   12.4509 O.2     1  UNL1       -0.4314
     24 C          61.7248   90.7545   10.8723 C.3     1  UNL1        0.1001
     25 N          63.2023   90.4960   10.8817 N.3     1  UNL1       -0.2928
     26 H          63.4919   90.4072    9.9076 H       1  UNL1        0.1236
     27 C          64.1325   91.4835   11.5217 C.3     1  UNL1        0.0849
     28 C          64.8371   92.5051   10.6791 C.3     1  UNL1        0.0604
     29 C          65.7672   93.4926   11.3191 C.3     1  UNL1        0.1363
     30 C          65.7937   93.8257    9.8567 C.3     1  UNL1        0.0402
     31 C          66.7637   94.9374   10.1275 C.3     1  UNL1        0.0072
     32 C          66.7373   94.6043   11.5899 C.3     1  UNL1        0.0402
     33 O          65.9928   93.4585   12.8016 O.3     1  UNL1       -0.4676
     34 C          65.2882   92.4370   13.6442 C.ar    1  UNL1        0.2216
     35 N          65.5138   92.4029   15.1268 N.ar    1  UNL1       -0.2107
     36 C          64.8092   91.3813   15.9693 C.ar    1  UNL1        0.0977
     37 C          63.8790   90.3938   15.3293 C.ar    1  UNL1       -0.0031
     38 C          63.6535   90.4279   13.8468 C.ar    1  UNL1       -0.0011
     39 C          64.3581   91.4494   13.0042 C.ar    1  UNL1        0.0449
     40 C          63.1744   89.3722   16.1719 C.3     1  UNL1        0.0279
     41 C          63.5648   87.9267   16.0808 C.3     1  UNL1        0.0041
     42 C          64.3002   88.2057   14.8037 C.3     1  UNL1        0.0003
     43 C          62.8293   87.6477   17.3581 C.3     1  UNL1        0.0003
     44 C          63.9551   86.4813   15.9898 C.3     1  UNL1        0.0003
@<TRIPOS>BOND
     1    10    11    1
     2    11     9    1
     3     9     5    1
     4     5     6    2
     5     5     7   am
     6     7     4    1
     7     4    12    1
     8    12    13    1
     9    13    14   ar
    10    14    15   ar
    11    15    16   ar
    12    16    17   ar
    13    17    19    1
    14    19    20   ar
    15    20    21   ar
    16    21    22   ar
    17    22    23   ar
    18    17    18   ar
    19     4     1    1
    20     1     2    1
    21     1    24    1
    22    24    25    1
    23    27    25    1
    24    27    28    1
    25    28    29    1
    26    29    30    1
    27    30    31    1
    28    31    32    1
    29    29    33    1
    30    33    34    1
    31    34    35   ar
    32    35    36   ar
    33    36    37   ar
    34    37    40    1
    35    40    41    1
    36    41    42    1
    37    41    43    1
    38    41    44    1
    39    37    38   ar
    40    38    39   ar
    41    18    13   ar
    42    39    27    1
    43    23    19   ar
    44    32    29    1
    45    39    34   ar
    46     7     8    1
    47     2     3    1
    48    25    26    1
@<TRIPOS>MOLECULE
*****
 44 48 0 0 0
SMALL
GASTEIGER

@<TRIPOS>ATOM
      1 C          60.5963   89.6397   11.8068 C.3     1  UNL1        0.1443
      2 O          59.5284   90.6862   11.9268 O.3     1  UNL1       -0.3813
      3 H          58.7176   90.3714   11.4974 H       1  UNL1        0.2105
      4 C          61.9550   89.8839   12.3936 C.3     1  UNL1        0.1041
      5 C          63.1120   89.2811   14.6403 C.2     1  UNL1        0.2527
      6 O          63.9631   88.2699   13.9308 O.2     1  UNL1       -0.2724
      7 N          62.1080   90.0880   13.8717 N.am    1  UNL1       -0.3012
      8 H          61.5495   90.7516   14.3374 H       1  UNL1        0.1495
      9 C          63.2650   89.4852   16.1185 C.3     1  UNL1        0.2269
     10 C          64.3306   91.8366   16.4113 C.3     1  UNL1        0.1748
     11 O          63.2186   90.8701   16.6931 O.3     1  UNL1       -0.3418
     12 C          63.1607   89.9240   11.5022 C.3     1  UNL1        0.0484
     13 C          64.0963   91.0951   11.5582 C.ar    1  UNL1       -0.0203
     14 C          64.1440   92.0720   10.4211 C.ar    1  UNL1       -0.0042
     15 C          65.0796   93.2431   10.4771 C.ar    1  UNL1       -0.0002
     16 C          65.9675   93.4373   11.6704 C.ar    1  UNL1        0.0046
     17 C          65.9199   92.4603   12.8076 C.ar    1  UNL1        0.0533
     18 C          64.9843   91.2892   12.7516 C.ar    1  UNL1        0.0004
     19 C          66.8078   92.6544   14.0009 C.ar    1  UNL1        0.2298
     20 N          67.5406   91.5741   14.7396 N.ar    1  UNL1       -0.2065
     21 C          68.3045   92.2150   15.8602 C.ar    1  UNL1        0.1427
     22 C          68.0438   93.6914   15.8140 C.ar    1  UNL1        0.2021
     23 O          67.1187   93.9629   14.6649 O.2     1  UNL1       -0.4314
     24 C          60.3055   88.3489   11.1001 C.3     1  UNL1        0.1001
     25 N          60.8744   87.0631   11.6225 N.3     1  UNL1       -0.2928
     26 H          60.0972   86.5392   12.0248 H       1  UNL1        0.1236
     27 C          61.5921   86.1285   10.6942 C.3     1  UNL1        0.0849
     28 C          61.2637   86.1263    9.2306 C.3     1  UNL1        0.0604
     29 C          61.9813   85.1918    8.3024 C.3     1  UNL1        0.1363
     30 C          61.0290   85.9523    7.4278 C.3     1  UNL1        0.0402
     31 C          61.5168   85.1886    6.2324 C.3     1  UNL1        0.0072
     32 C          62.4691   84.4281    7.1070 C.3     1  UNL1        0.0402
     33 O          63.0274   84.2596    8.8377 O.3     1  UNL1       -0.4676
     34 C          63.3558   84.2618   10.3013 C.ar    1  UNL1        0.2216
     35 N          64.4020   83.3296   10.8367 N.ar    1  UNL1       -0.2107
     36 C          64.7304   83.3318   12.3002 C.ar    1  UNL1        0.0977
     37 C          64.0127   84.2664   13.2285 C.ar    1  UNL1       -0.0031
     38 C          62.9666   85.1986   12.6932 C.ar    1  UNL1       -0.0011
     39 C          62.6382   85.1963   11.2296 C.ar    1  UNL1        0.0449
     40 C          64.3412   84.2687   14.6921 C.3     1  UNL1        0.0279
     41 C          63.3340   84.7667   15.6860 C.3     1  UNL1        0.0041
     42 C          64.2293   85.9250   16.0127 C.3     1  UNL1        0.0003
     43 C          62.4388   83.6083   15.3593 C.3     1  UNL1        0.0003
     44 C          62.3270   85.2647   16.6798 C.3     1  UNL1        0.0003
@<TRIPOS>BOND
     1    10    11    1
     2    11     9    1
     3     9     5    1
     4     5     6    2
     5     5     7   am
     6     7     4    1
     7     4    12    1
     8    12    13    1
     9    13    14   ar
    10    14    15   ar
    11    15    16   ar
    12    16    17   ar
    13    17    19    1
    14    19    20   ar
    15    20    21   ar
    16    21    22   ar
    17    22    23   ar
    18    17    18   ar
    19     4     1    1
    20     1     2    1
    21     1    24    1
    22    24    25    1
    23    27    25    1
    24    27    28    1
    25    28    29    1
    26    29    30    1
    27    30    31    1
    28    31    32    1
    29    29    33    1
    30    33    34    1
    31    34    35   ar
    32    35    36   ar
    33    36    37   ar
    34    37    40    1
    35    40    41    1
    36    41    42    1
    37    41    43    1
    38    41    44    1
    39    37    38   ar
    40    38    39   ar
    41    18    13   ar
    42    39    27    1
    43    23    19   ar
    44    32    29    1
    45    39    34   ar
    46     7     8    1
    47     2     3    1
    48    25    26    1
@<TRIPOS>MOLECULE
*****
 44 48 0 0 0
SMALL
GASTEIGER

@<TRIPOS>ATOM
      1 C          60.0209   89.1381   10.7191 C.3     1  UNL1        0.1443
      2 O          59.3712   90.1981   11.5583 O.3     1  UNL1       -0.3813
      3 H          58.8113   89.7799   12.2310 H       1  UNL1        0.2105
      4 C          60.9420   89.5266    9.6009 C.3     1  UNL1        0.1041
      5 C          59.5009   89.2705    7.4544 C.2     1  UNL1        0.2527
      6 O          59.1785   87.8570    7.8395 O.2     1  UNL1       -0.2724
      7 N          60.3827   90.1052    8.3351 N.am    1  UNL1       -0.3012
      8 H          60.5943   91.0329    8.0824 H       1  UNL1        0.1495
      9 C          58.9415   89.8491    6.1886 C.3     1  UNL1        0.2269
     10 C          59.1688   91.9705    4.7060 C.3     1  UNL1        0.1748
     11 O          59.7829   90.7601    5.3445 O.3     1  UNL1       -0.3418
     12 C          62.4226   89.3364    9.7485 C.3     1  UNL1        0.0484
     13 C          63.1742   90.0916   10.8043 C.ar    1  UNL1       -0.0203
     14 C          63.1196   89.6381   12.2330 C.ar    1  UNL1       -0.0042
     15 C          63.8712   90.3933   13.2889 C.ar    1  UNL1       -0.0002
     16 C          64.6774   91.6020   12.9160 C.ar    1  UNL1        0.0046
     17 C          64.7320   92.0555   11.4872 C.ar    1  UNL1        0.0533
     18 C          63.9804   91.3004   10.4313 C.ar    1  UNL1        0.0004
     19 C          65.5382   93.2642   11.1143 C.ar    1  UNL1        0.2298
     20 N          66.2464   93.4837    9.8103 N.ar    1  UNL1       -0.2065
     21 C          66.9237   94.8207    9.8700 C.ar    1  UNL1        0.1427
     22 C          66.6340   95.4276   11.2108 C.ar    1  UNL1        0.2021
     23 O          65.7778   94.4656   11.9797 O.2     1  UNL1       -0.4314
     24 C          59.7494   87.6894   10.9983 C.3     1  UNL1        0.1001
     25 N          60.8195   86.8285   11.6013 N.3     1  UNL1       -0.2928
     26 H          60.3647   86.2376   12.2973 H       1  UNL1        0.1236
     27 C          61.6327   85.9203   10.7271 C.3     1  UNL1        0.0849
     28 C          61.4052   85.9049    9.2446 C.3     1  UNL1        0.0604
     29 C          62.2184   84.9967    8.3705 C.3     1  UNL1        0.1363
     30 C          61.3007   85.7211    7.4305 C.3     1  UNL1        0.0402
     31 C          61.8967   84.9749    6.2737 C.3     1  UNL1        0.0072
     32 C          62.8143   84.2506    7.2136 C.3     1  UNL1        0.0402
     33 O          63.2589   84.1040    8.9789 O.3     1  UNL1       -0.4676
     34 C          63.4864   84.1195   10.4615 C.ar    1  UNL1        0.2216
     35 N          64.5270   83.2267   11.0700 N.ar    1  UNL1       -0.2107
     36 C          64.7544   83.2421   12.5525 C.ar    1  UNL1        0.0977
     37 C          63.9412   84.1503   13.4267 C.ar    1  UNL1       -0.0031
     38 C          62.9007   85.0430   12.8182 C.ar    1  UNL1       -0.0011
     39 C          62.6732   85.0276   11.3356 C.ar    1  UNL1        0.0449
     40 C          64.1687   84.1657   14.9092 C.3     1  UNL1        0.0279
     41 C          63.7978   85.3772   15.7123 C.3     1  UNL1        0.0041
     42 C          64.9911   86.1041   15.1667 C.3     1  UNL1        0.0003
     43 C          62.6046   84.6502   16.2580 C.3     1  UNL1        0.0003
     44 C          63.4271   86.5886   16.5154 C.3     1  UNL1        0.0003
@<TRIPOS>BOND
     1    10    11    1
     2    11     9    1
     3     9     5    1
     4     5     6    2
     5     5     7   am
     6     7     4    1
     7     4    12    1
     8    12    13    1
     9    13    14   ar
    10    14    15   ar
    11    15    16   ar
    12    16    17   ar
    13    17    19    1
    14    19    20   ar
    15    20    21   ar
    16    21    22   ar
    17    22    23   ar
    18    17    18   ar
    19     4     1    1
    20     1     2    1
    21     1    24    1
    22    24    25    1
    23    27    25    1
    24    27    28    1
    25    28    29    1
    26    29    30    1
    27    30    31    1
    28    31    32    1
    29    29    33    1
    30    33    34    1
    31    34    35   ar
    32    35    36   ar
    33    36    37   ar
    34    37    40    1
    35    40    41    1
    36    41    42    1
    37    41    43    1
    38    41    44    1
    39    37    38   ar
    40    38    39   ar
    41    18    13   ar
    42    39    27    1
    43    23    19   ar
    44    32    29    1
    45    39    34   ar
    46     7     8    1
    47     2     3    1
    48    25    26    1
@<TRIPOS>MOLECULE
*****
 44 48 0 0 0
SMALL
GASTEIGER

@<TRIPOS>ATOM
      1 C          61.9331   89.9380   12.1533 C.3     1  UNL1        0.1443
      2 O          62.1731   90.7032   10.8857 O.3     1  UNL1       -0.3813
      3 H          61.3495   90.7501   10.3755 H       1  UNL1        0.2105
      4 C          63.0564   89.7231   13.1238 C.3     1  UNL1        0.1041
      5 C          63.9123   87.8132   14.6632 C.2     1  UNL1        0.2527
      6 O          63.5743   88.6355   15.8714 O.2     1  UNL1       -0.2724
      7 N          63.6534   88.3570   13.2894 N.am    1  UNL1       -0.3012
      8 H          63.8753   87.8173   12.4965 H       1  UNL1        0.1495
      9 C          64.5093   86.4471   14.8289 C.3     1  UNL1        0.2269
     10 C          62.8682   85.6219   16.6663 C.3     1  UNL1        0.1748
     11 O          64.2482   85.6612   16.0796 O.3     1  UNL1       -0.3418
     12 C          63.5828   90.8742   13.9285 C.3     1  UNL1        0.0484
     13 C          65.0106   91.3072   13.7733 C.ar    1  UNL1       -0.0203
     14 C          65.9530   91.2148   14.9366 C.ar    1  UNL1       -0.0042
     15 C          67.3807   91.6478   14.7814 C.ar    1  UNL1       -0.0002
     16 C          67.8661   92.1731   13.4629 C.ar    1  UNL1        0.0046
     17 C          66.9236   92.2654   12.2995 C.ar    1  UNL1        0.0533
     18 C          65.4959   91.8324   12.4547 C.ar    1  UNL1        0.0004
     19 C          67.4089   92.7907   10.9810 C.ar    1  UNL1        0.2298
     20 N          67.3154   94.2116   10.5096 N.ar    1  UNL1       -0.2065
     21 C          67.9217   94.2864    9.1397 C.ar    1  UNL1        0.1427
     22 C          68.3899   92.9116    8.7644 C.ar    1  UNL1        0.2021
     23 O          68.0730   91.9873    9.9024 O.2     1  UNL1       -0.4314
     24 C          60.5696   89.3876   12.4504 C.3     1  UNL1        0.1001
     25 N          60.1730   88.0409   11.9223 N.3     1  UNL1       -0.2928
     26 H          59.1688   87.9486   12.0757 H       1  UNL1        0.1236
     27 C          60.4250   87.6952   10.4845 C.3     1  UNL1        0.0849
     28 C          59.7700   88.4921    9.3956 C.3     1  UNL1        0.0604
     29 C          60.0220   88.1464    7.9579 C.3     1  UNL1        0.1363
     30 C          59.0856   89.3176    7.9172 C.3     1  UNL1        0.0402
     31 C          59.0956   89.2735    6.4178 C.3     1  UNL1        0.0072
     32 C          60.0320   88.1023    6.4585 C.3     1  UNL1        0.0402
     33 O          60.9290   87.0037    7.6092 O.3     1  UNL1       -0.4676
     34 C          61.5840   86.2068    8.6982 C.ar    1  UNL1        0.2216
     35 N          62.4910   85.0641    8.3494 N.ar    1  UNL1       -0.2107
     36 C          63.1460   84.2671    9.4383 C.ar    1  UNL1        0.0977
     37 C          62.8940   84.6129   10.8761 C.ar    1  UNL1       -0.0031
     38 C          61.9870   85.7555   11.2248 C.ar    1  UNL1       -0.0011
     39 C          61.3320   86.5525   10.1358 C.ar    1  UNL1        0.0449
     40 C          63.5490   83.8159   11.9650 C.3     1  UNL1        0.0279
     41 C          62.8237   82.6605   12.5888 C.3     1  UNL1        0.0041
     42 C          63.1331   81.8177   11.3872 C.3     1  UNL1        0.0003
     43 C          62.5143   83.5034   13.7904 C.3     1  UNL1        0.0003
     44 C          62.0985   81.5051   13.2124 C.3     1  UNL1        0.0003
@<TRIPOS>BOND
     1    10    11    1
     2    11     9    1
     3     9     5    1
     4     5     6    2
     5     5     7   am
     6     7     4    1
     7     4    12    1
     8    12    13    1
     9    13    14   ar
    10    14    15   ar
    11    15    16   ar
    12    16    17   ar
    13    17    19    1
    14    19    20   ar
    15    20    21   ar
    16    21    22   ar
    17    22    23   ar
    18    17    18   ar
    19     4     1    1
    20     1     2    1
    21     1    24    1
    22    24    25    1
    23    27    25    1
    24    27    28    1
    25    28    29    1
    26    29    30    1
    27    30    31    1
    28    31    32    1
    29    29    33    1
    30    33    34    1
    31    34    35   ar
    32    35    36   ar
    33    36    37   ar
    34    37    40    1
    35    40    41    1
    36    41    42    1
    37    41    43    1
    38    41    44    1
    39    37    38   ar
    40    38    39   ar
    41    18    13   ar
    42    39    27    1
    43    23    19   ar
    44    32    29    1
    45    39    34   ar
    46     7     8    1
    47     2     3    1
    48    25    26    1
@<TRIPOS>MOLECULE
*****
 44 48 0 0 0
SMALL
GASTEIGER

@<TRIPOS>ATOM
      1 C          60.9647   89.3161   11.4295 C.3     1  UNL1        0.1443
      2 O          60.0418   90.4270   11.8344 O.3     1  UNL1       -0.3813
      3 H          59.1221   90.1315   11.7467 H       1  UNL1        0.2105
      4 C          62.4500   89.5205   11.4756 C.3     1  UNL1        0.1041
      5 C          63.2696   88.9390   13.8715 C.2     1  UNL1        0.2527
      6 O          62.4016   90.0263   14.4323 O.2     1  UNL1       -0.2724
      7 N          63.2938   88.6861   12.3932 N.am    1  UNL1       -0.3012
      8 H          63.8634   87.9725   12.0251 H       1  UNL1        0.1495
      9 C          64.1134   88.1047   14.7890 C.3     1  UNL1        0.2269
     10 C          63.0877   88.9643   17.0160 C.3     1  UNL1        0.1748
     11 O          63.6618   87.8470   16.1961 O.3     1  UNL1       -0.3418
     12 C          63.0915   90.5592   10.6042 C.3     1  UNL1        0.0484
     13 C          64.0876   91.5168   11.1879 C.ar    1  UNL1       -0.0203
     14 C          64.5033   91.3843   12.6231 C.ar    1  UNL1       -0.0042
     15 C          65.4995   92.3419   13.2068 C.ar    1  UNL1       -0.0002
     16 C          66.0800   93.4319   12.3554 C.ar    1  UNL1        0.0046
     17 C          65.6643   93.5644   10.9202 C.ar    1  UNL1        0.0533
     18 C          64.6681   92.6068   10.3365 C.ar    1  UNL1        0.0004
     19 C          66.2447   94.6544   10.0688 C.ar    1  UNL1        0.2298
     20 N          67.1803   94.4656    8.9117 N.ar    1  UNL1       -0.2065
     21 C          67.5054   95.8191    8.3528 C.ar    1  UNL1        0.1427
     22 C          66.7707   96.8444    9.1646 C.ar    1  UNL1        0.2021
     23 O          65.9916   96.1245   10.2251 O.2     1  UNL1       -0.4314
     24 C          60.4023   88.0006   10.9784 C.3     1  UNL1        0.1001
     25 N          61.0374   86.7190   11.4300 N.3     1  UNL1       -0.2928
     26 H          60.3022   86.1648   11.8691 H       1  UNL1        0.1236
     27 C          61.7160   85.8263   10.4337 C.3     1  UNL1        0.0849
     28 C          61.3763   85.9341    8.9766 C.3     1  UNL1        0.0604
     29 C          62.0548   85.0415    7.9803 C.3     1  UNL1        0.1363
     30 C          61.1218   85.8906    7.1686 C.3     1  UNL1        0.0402
     31 C          61.5743   85.1939    5.9196 C.3     1  UNL1        0.0072
     32 C          62.5074   84.3449    6.7312 C.3     1  UNL1        0.0402
     33 O          63.0731   84.0411    8.4409 O.3     1  UNL1       -0.4676
     34 C          63.4128   83.9333    9.8980 C.ar    1  UNL1        0.2216
     35 N          64.4312   82.9329   10.3586 N.ar    1  UNL1       -0.2107
     36 C          64.7709   82.8251   11.8157 C.ar    1  UNL1        0.0977
     37 C          64.0923   83.7177   12.8121 C.ar    1  UNL1       -0.0031
     38 C          63.0740   84.7181   12.3514 C.ar    1  UNL1       -0.0011
     39 C          62.7343   84.8259   10.8943 C.ar    1  UNL1        0.0449
     40 C          64.4320   83.6099   14.2691 C.3     1  UNL1        0.0279
     41 C          63.4677   84.1109   15.3031 C.3     1  UNL1        0.0041
     42 C          64.4747   85.1293   15.7489 C.3     1  UNL1        0.0003
     43 C          62.4606   83.0924   14.8573 C.3     1  UNL1        0.0003
     44 C          62.5034   84.6119   16.3371 C.3     1  UNL1        0.0003
@<TRIPOS>BOND
     1    10    11    1
     2    11     9    1
     3     9     5    1
     4     5     6    2
     5     5     7   am
     6     7     4    1
     7     4    12    1
     8    12    13    1
     9    13    14   ar
    10    14    15   ar
    11    15    16   ar
    12    16    17   ar
    13    17    19    1
    14    19    20   ar
    15    20    21   ar
    16    21    22   ar
    17    22    23   ar
    18    17    18   ar
    19     4     1    1
    20     1     2    1
    21     1    24    1
    22    24    25    1
    23    27    25    1
    24    27    28    1
    25    28    29    1
    26    29    30    1
    27    30    31    1
    28    31    32    1
    29    29    33    1
    30    33    34    1
    31    34    35   ar
    32    35    36   ar
    33    36    37   ar
    34    37    40    1
    35    40    41    1
    36    41    42    1
    37    41    43    1
    38    41    44    1
    39    37    38   ar
    40    38    39   ar
    41    18    13   ar
    42    39    27    1
    43    23    19   ar
    44    32    29    1
    45    39    34   ar
    46     7     8    1
    47     2     3    1
    48    25    26    1
@<TRIPOS>MOLECULE
*****
 44 48 0 0 0
SMALL
GASTEIGER

@<TRIPOS>ATOM
      1 C          60.6979   89.7978   11.1946 C.3     1  UNL1        0.1443
      2 O          59.4838   90.3369   11.8913 O.3     1  UNL1       -0.3813
      3 H          59.5476   91.3029   11.9512 H       1  UNL1        0.2105
      4 C          60.8426   88.3211   10.9746 C.3     1  UNL1        0.1041
      5 C          59.7482   88.0345    8.6357 C.2     1  UNL1        0.2527
      6 O          60.5561   89.1869    8.1165 O.2     1  UNL1       -0.2724
      7 N          59.8915   87.6017   10.0647 N.am    1  UNL1       -0.3012
      8 H          59.3613   86.8454   10.4055 H       1  UNL1        0.1495
      9 C          58.7972   87.3151    7.7259 C.3     1  UNL1        0.2269
     10 C          60.5302   85.4981    7.0586 C.3     1  UNL1        0.1748
     11 O          59.1063   85.9200    7.2694 O.3     1  UNL1       -0.3418
     12 C          61.9384   87.5639   11.6644 C.3     1  UNL1        0.0484
     13 C          62.4096   86.2531   11.1078 C.ar    1  UNL1       -0.0203
     14 C          62.8029   86.1492    9.6641 C.ar    1  UNL1       -0.0042
     15 C          63.2741   84.8384    9.1076 C.ar    1  UNL1       -0.0002
     16 C          63.3519   83.6315    9.9948 C.ar    1  UNL1        0.0046
     17 C          62.9585   83.7353   11.4386 C.ar    1  UNL1        0.0533
     18 C          62.4873   85.0461   11.9951 C.ar    1  UNL1        0.0004
     19 C          63.0363   82.5284   12.3258 C.ar    1  UNL1        0.2298
     20 N          61.9419   81.5276   12.5509 N.ar    1  UNL1       -0.2065
     21 C          62.4514   80.4910   13.5079 C.ar    1  UNL1        0.1427
     22 C          63.8606   80.8511   13.8743 C.ar    1  UNL1        0.2021
     23 O          64.2221   82.1103   13.1437 O.2     1  UNL1       -0.4314
     24 C          61.7673   90.7355   10.7180 C.3     1  UNL1        0.1001
     25 N          63.2070   90.4509   11.0280 N.3     1  UNL1       -0.2928
     26 H          63.7583   90.8749   10.2818 H       1  UNL1        0.1236
     27 C          63.8015   90.9171   12.3239 C.3     1  UNL1        0.0849
     28 C          63.3272   90.3306   13.6205 C.3     1  UNL1        0.0604
     29 C          63.9216   90.7967   14.9164 C.3     1  UNL1        0.1363
     30 C          62.9072   89.7620   15.3045 C.3     1  UNL1        0.0402
     31 C          63.2508   89.9673   16.7502 C.3     1  UNL1        0.0072
     32 C          64.2652   91.0020   16.3621 C.3     1  UNL1        0.0402
     33 O          64.9903   91.8492   14.9158 O.3     1  UNL1       -0.4676
     34 C          65.4646   92.4356   13.6192 C.ar    1  UNL1        0.2216
     35 N          66.5334   93.4882   13.6185 N.ar    1  UNL1       -0.2107
     36 C          67.0077   94.0746   12.3219 C.ar    1  UNL1        0.0977
     37 C          66.4132   93.6085   11.0260 C.ar    1  UNL1       -0.0031
     38 C          65.3445   92.5560   11.0267 C.ar    1  UNL1       -0.0011
     39 C          64.8702   91.9696   12.3233 C.ar    1  UNL1        0.0449
     40 C          66.8875   94.1949    9.7294 C.3     1  UNL1        0.0279
     41 C          66.3641   95.5240    9.2714 C.3     1  UNL1        0.0041
     42 C          67.3787   95.5429    8.1668 C.3     1  UNL1        0.0003
     43 C          65.3494   95.5050   10.3760 C.3     1  UNL1        0.0003
     44 C          65.8407   96.8530    8.8134 C.3     1  UNL1        0.0003
@<TRIPOS>BOND
     1    10    11    1
     2    11     9    1
     3     9     5    1
     4     5     6    2
     5     5     7   am
     6     7     4    1
     7     4    12    1
     8    12    13    1
     9    13    14   ar
    10    14    15   ar
    11    15    16   ar
    12    16    17   ar
    13    17    19    1
    14    19    20   ar
    15    20    21   ar
    16    21    22   ar
    17    22    23   ar
    18    17    18   ar
    19     4     1    1
    20     1     2    1
    21     1    24    1
    22    24    25    1
    23    27    25    1
    24    27    28    1
    25    28    29    1
    26    29    30    1
    27    30    31    1
    28    31    32    1
    29    29    33    1
    30    33    34    1
    31    34    35   ar
    32    35    36   ar
    33    36    37   ar
    34    37    40    1
    35    40    41    1
    36    41    42    1
    37    41    43    1
    38    41    44    1
    39    37    38   ar
    40    38    39   ar
    41    18    13   ar
    42    39    27    1
    43    23    19   ar
    44    32    29    1
    45    39    34   ar
    46     7     8    1
    47     2     3    1
    48    25    26    1
@<TRIPOS>MOLECULE
*****
 44 48 0 0 0
SMALL
GASTEIGER

@<TRIPOS>ATOM
      1 C          62.5859   89.4115   12.2301 C.3     1  UNL1        0.1443
      2 O          62.4198   90.0946   13.5552 O.3     1  UNL1       -0.3813
      3 H          62.4558   89.4351   14.2656 H       1  UNL1        0.2105
      4 C          62.5668   90.2158   10.9641 C.3     1  UNL1        0.1041
      5 C          60.6208   89.5677    9.3695 C.2     1  UNL1        0.2527
      6 O          59.6352   90.1656   10.3292 O.2     1  UNL1       -0.2724
      7 N          62.0866   89.5928    9.6869 N.am    1  UNL1       -0.3012
      8 H          62.7334   89.2003    9.0570 H       1  UNL1        0.1495
      9 C          60.1405   88.9447    8.0923 C.3     1  UNL1        0.2269
     10 C          59.2577   90.0957    5.9368 C.3     1  UNL1        0.1748
     11 O          59.0185   89.5783    7.3243 O.3     1  UNL1       -0.3418
     12 C          63.0280   91.6430   10.9753 C.3     1  UNL1        0.0484
     13 C          64.4831   91.9596   11.1556 C.ar    1  UNL1       -0.0203
     14 C          65.3547   92.1895    9.9567 C.ar    1  UNL1       -0.0042
     15 C          66.8098   92.5061   10.1369 C.ar    1  UNL1       -0.0002
     16 C          67.3933   92.5929   11.5161 C.ar    1  UNL1        0.0046
     17 C          66.5216   92.3630   12.7150 C.ar    1  UNL1        0.0533
     18 C          65.0665   92.0464   12.5348 C.ar    1  UNL1        0.0004
     19 C          67.1050   92.4498   14.0942 C.ar    1  UNL1        0.2298
     20 N          68.5654   92.4342   14.4362 N.ar    1  UNL1       -0.2065
     21 C          68.6935   92.5422   15.9268 C.ar    1  UNL1        0.1427
     22 C          67.3123   92.6246   16.5060 C.ar    1  UNL1        0.2021
     23 O          66.3306   92.5675   15.3733 O.2     1  UNL1       -0.4314
     24 C          62.7710   87.9241   12.1710 C.3     1  UNL1        0.1001
     25 N          61.7817   87.0740   11.4304 N.3     1  UNL1       -0.2928
     26 H          61.2279   87.7043   10.8504 H       1  UNL1        0.1236
     27 C          62.2629   85.9714   10.5343 C.3     1  UNL1        0.0849
     28 C          61.9347   85.9973    9.0708 C.3     1  UNL1        0.0604
     29 C          62.4158   84.8948    8.1747 C.3     1  UNL1        0.1363
     30 C          61.6570   85.8239    7.2741 C.3     1  UNL1        0.0402
     31 C          61.9517   84.9314    6.1050 C.3     1  UNL1        0.0072
     32 C          62.7106   84.0023    7.0056 C.3     1  UNL1        0.0402
     33 O          63.2250   83.7665    8.7421 O.3     1  UNL1       -0.4676
     34 C          63.5532   83.7406   10.2055 C.ar    1  UNL1        0.2216
     35 N          64.3625   82.6121   10.7728 N.ar    1  UNL1       -0.2107
     36 C          64.6906   82.5862   12.2362 C.ar    1  UNL1        0.0977
     37 C          64.2095   83.6888   13.1324 C.ar    1  UNL1       -0.0031
     38 C          63.4002   84.8172   12.5650 C.ar    1  UNL1       -0.0011
     39 C          63.0721   84.8431   11.1016 C.ar    1  UNL1        0.0449
     40 C          64.5376   83.6629   14.5958 C.3     1  UNL1        0.0279
     41 C          64.0278   84.7475   15.4980 C.3     1  UNL1        0.0041
     42 C          62.8549   83.8886   15.8675 C.3     1  UNL1        0.0003
     43 C          65.2008   85.6063   15.1285 C.3     1  UNL1        0.0003
     44 C          63.5180   85.8319   16.4002 C.3     1  UNL1        0.0003
@<TRIPOS>BOND
     1    10    11    1
     2    11     9    1
     3     9     5    1
     4     5     6    2
     5     5     7   am
     6     7     4    1
     7     4    12    1
     8    12    13    1
     9    13    14   ar
    10    14    15   ar
    11    15    16   ar
    12    16    17   ar
    13    17    19    1
    14    19    20   ar
    15    20    21   ar
    16    21    22   ar
    17    22    23   ar
    18    17    18   ar
    19     4     1    1
    20     1     2    1
    21     1    24    1
    22    24    25    1
    23    27    25    1
    24    27    28    1
    25    28    29    1
    26    29    30    1
    27    30    31    1
    28    31    32    1
    29    29    33    1
    30    33    34    1
    31    34    35   ar
    32    35    36   ar
    33    36    37   ar
    34    37    40    1
    35    40    41    1
    36    41    42    1
    37    41    43    1
    38    41    44    1
    39    37    38   ar
    40    38    39   ar
    41    18    13   ar
    42    39    27    1
    43    23    19   ar
    44    32    29    1
    45    39    34   ar
    46     7     8    1
    47     2     3    1
    48    25    26    1
@<TRIPOS>MOLECULE
*****
 44 48 0 0 0
SMALL
GASTEIGER

@<TRIPOS>ATOM
      1 C          64.2165   86.0955   14.6500 C.3     1  UNL1        0.1443
      2 O          65.6749   86.0114   14.9907 O.3     1  UNL1       -0.3813
      3 H          65.9078   86.7331   15.5954 H       1  UNL1        0.2105
      4 C          63.6030   85.0866   13.7250 C.3     1  UNL1        0.1041
      5 C          63.5201   82.5122   14.0646 C.2     1  UNL1        0.2527
      6 O          62.1781   82.6421   14.7221 O.2     1  UNL1       -0.2724
      7 N          64.2325   83.7344   13.5661 N.am    1  UNL1       -0.3012
      8 H          65.1133   83.6490   13.1346 H       1  UNL1        0.1495
      9 C          64.1496   81.1599   13.9058 C.3     1  UNL1        0.2269
     10 C          62.1387   79.6294   13.3023 C.3     1  UNL1        0.1748
     11 O          63.3394   79.9218   14.1525 O.3     1  UNL1       -0.3418
     12 C          62.3600   85.4299   12.9588 C.3     1  UNL1        0.0484
     13 C          62.3805   85.4339   11.4589 C.ar    1  UNL1       -0.0203
     14 C          63.3387   84.5477   10.7196 C.ar    1  UNL1       -0.0042
     15 C          63.3592   84.5517    9.2198 C.ar    1  UNL1       -0.0002
     16 C          62.4215   85.4418    8.4592 C.ar    1  UNL1        0.0046
     17 C          61.4633   86.3280    9.1985 C.ar    1  UNL1        0.0533
     18 C          61.4428   86.3241   10.6984 C.ar    1  UNL1        0.0004
     19 C          60.5257   87.2181    8.4380 C.ar    1  UNL1        0.2298
     20 N          59.2935   86.7788    7.7041 N.ar    1  UNL1       -0.2065
     21 C          58.6619   87.9930    7.0903 C.ar    1  UNL1        0.1427
     22 C          59.5037   89.1827    7.4449 C.ar    1  UNL1        0.2021
     23 O          60.6556   88.7038    8.2778 O.2     1  UNL1       -0.4314
     24 C          63.3716   87.1885   15.2345 C.3     1  UNL1        0.1001
     25 N          63.8807   88.5992   15.2571 N.3     1  UNL1       -0.2928
     26 H          64.8882   88.5463   15.4074 H       1  UNL1        0.1236
     27 C          63.6661   89.4932   14.0718 C.3     1  UNL1        0.0849
     28 C          62.4068   89.3793   13.2648 C.3     1  UNL1        0.0604
     29 C          62.1922   90.2732   12.0795 C.3     1  UNL1        0.1363
     30 C          60.9628   89.4163   12.1472 C.3     1  UNL1        0.0402
     31 C          60.4112   90.1122   10.9382 C.3     1  UNL1        0.0072
     32 C          61.6406   90.9690   10.8705 C.3     1  UNL1        0.0402
     33 O          63.2369   91.2809   11.7012 O.3     1  UNL1       -0.4676
     34 C          64.4962   91.3947   12.5082 C.ar    1  UNL1        0.2216
     35 N          65.5409   92.4025   12.1299 N.ar    1  UNL1       -0.2107
     36 C          66.8001   92.5163   12.9369 C.ar    1  UNL1        0.0977
     37 C          67.0147   91.6224   14.1222 C.ar    1  UNL1       -0.0031
     38 C          65.9701   90.6147   14.5005 C.ar    1  UNL1       -0.0011
     39 C          64.7108   90.5009   13.6935 C.ar    1  UNL1        0.0449
     40 C          68.2740   91.7362   14.9292 C.3     1  UNL1        0.0279
     41 C          68.6479   93.0473   15.5548 C.3     1  UNL1        0.0041
     42 C          67.3137   93.1018   16.2380 C.3     1  UNL1        0.0003
     43 C          69.9823   92.9928   14.8716 C.3     1  UNL1        0.0003
     44 C          69.0218   94.3583   16.1805 C.3     1  UNL1        0.0003
@<TRIPOS>BOND
     1    10    11    1
     2    11     9    1
     3     9     5    1
     4     5     6    2
     5     5     7   am
     6     7     4    1
     7     4    12    1
     8    12    13    1
     9    13    14   ar
    10    14    15   ar
    11    15    16   ar
    12    16    17   ar
    13    17    19    1
    14    19    20   ar
    15    20    21   ar
    16    21    22   ar
    17    22    23   ar
    18    17    18   ar
    19     4     1    1
    20     1     2    1
    21     1    24    1
    22    24    25    1
    23    27    25    1
    24    27    28    1
    25    28    29    1
    26    29    30    1
    27    30    31    1
    28    31    32    1
    29    29    33    1
    30    33    34    1
    31    34    35   ar
    32    35    36   ar
    33    36    37   ar
    34    37    40    1
    35    40    41    1
    36    41    42    1
    37    41    43    1
    38    41    44    1
    39    37    38   ar
    40    38    39   ar
    41    18    13   ar
    42    39    27    1
    43    23    19   ar
    44    32    29    1
    45    39    34   ar
    46     7     8    1
    47     2     3    1
    48    25    26    1
