@<TRIPOS>MOLECULE
*****
 25 28 0 0 0
SMALL
GASTEIGER

@<TRIPOS>ATOM
      1 N          65.8513   93.1769   10.1209 N.pl3   1  UNL1       -0.3441
      2 C          65.0139   92.3475   11.0488 C.ar    1  UNL1        0.1035
      3 C          63.8857   91.5220   10.5052 C.ar    1  UNL1        0.0297
      4 C          63.0483   90.6925   11.4331 C.ar    1  UNL1        0.0090
      5 C          63.3393   90.6887   12.9046 C.ar    1  UNL1        0.1366
      6 N          62.6907   89.9760   14.0541 N.ar    1  UNL1       -0.1258
      7 N          63.4181   90.3611   15.3081 N.ar    1  UNL1       -0.0406
      8 N          64.5163   91.3118   14.9336 N.ar    1  UNL1       -0.1095
      9 C          64.4676   91.5142   13.4482 C.ar    1  UNL1        0.1838
     10 N          65.3049   92.3436   12.5203 N.ar    1  UNL1       -0.3249
     11 H          65.6604   93.1795    9.1551 H       1  UNL1        0.1437
     12 H          66.5918   93.7187   10.4777 H       1  UNL1        0.1437
     13 H          66.0455   92.8854   12.8770 H       1  UNL1        0.1686
     14 C          61.9200   89.8670   10.8894 C.3     1  UNL1        0.0757
     15 C          62.0666   88.3786   10.7761 C.ar    1  UNL1        0.0850
     16 C          61.9654   87.5763    9.5127 C.ar    1  UNL1        0.0375
     17 C          62.1764   86.1329    9.8621 C.ar    1  UNL1        0.1033
     18 N          62.4080   86.0431   11.3414 N.ar    1  UNL1       -0.2110
     19 N          62.3401   87.4310   11.9063 N.ar    1  UNL1       -0.1678
     20 C          62.6627   84.7860   12.1193 C.ar    1  UNL1        0.1638
     21 C          63.1728   83.5613   11.4195 C.ar    1  UNL1        0.0388
     22 C          63.4275   82.3043   12.1974 C.ar    1  UNL1        0.0047
     23 C          63.1721   82.2722   13.6752 C.ar    1  UNL1        0.0208
     24 C          62.6620   83.4970   14.3750 C.ar    1  UNL1        0.1006
     25 N          62.4073   84.7539   13.5970 N.ar    1  UNL1       -0.2250
@<TRIPOS>BOND
     1     1     2    1
     2     2     3   ar
     3     3     4   ar
     4     4    14    1
     5    14    15    1
     6    15    16   ar
     7    16    17   ar
     8    17    18   ar
     9    18    20    1
    10    20    21   ar
    11    21    22   ar
    12    22    23   ar
    13    23    24   ar
    14    24    25   ar
    15    18    19   ar
    16     4     5   ar
    17     5     6   ar
    18     6     7   ar
    19     7     8   ar
    20     8     9   ar
    21     9    10   ar
    22    10     2   ar
    23    19    15   ar
    24     9     5    1
    25    25    20   ar
    26     1    11    1
    27     1    12    1
    28    10    13    1
@<TRIPOS>MOLECULE
*****
 25 28 0 0 0
SMALL
GASTEIGER

@<TRIPOS>ATOM
      1 N          59.0796   88.5367    7.0681 N.pl3   1  UNL1       -0.3441
      2 C          59.8884   88.3267    8.3138 C.ar    1  UNL1        0.1035
      3 C          60.1405   89.4738    9.2467 C.ar    1  UNL1        0.0297
      4 C          60.9493   89.2638   10.4924 C.ar    1  UNL1        0.0090
      5 C          61.5060   87.9065   10.8051 C.ar    1  UNL1        0.1366
      6 N          62.3337   87.4003   11.9491 N.ar    1  UNL1       -0.1258
      7 N          62.5932   85.9403   11.7231 N.ar    1  UNL1       -0.0406
      8 N          61.9258   85.5441   10.4395 N.ar    1  UNL1       -0.1095
      9 C          61.2539   86.7593    9.8721 C.ar    1  UNL1        0.1838
     10 N          60.4451   86.9694    8.6265 N.ar    1  UNL1       -0.3249
     11 H          58.7141   89.4276    6.8628 H       1  UNL1        0.1437
     12 H          58.9141   87.7838    6.4558 H       1  UNL1        0.1437
     13 H          60.2796   86.2164    8.0141 H       1  UNL1        0.1686
     14 C          61.2014   90.4110   11.4253 C.3     1  UNL1        0.0757
     15 C          62.5892   90.9577   11.5840 C.ar    1  UNL1        0.0850
     16 C          63.4673   91.4680   10.4802 C.ar    1  UNL1        0.0375
     17 C          64.7633   91.9157   11.0884 C.ar    1  UNL1        0.1033
     18 N          64.6862   91.6821   12.5681 N.ar    1  UNL1       -0.2110
     19 N          63.3424   91.0900   12.8744 N.ar    1  UNL1       -0.1678
     20 C          65.7635   91.9870   13.5663 C.ar    1  UNL1        0.1638
     21 C          67.2060   91.8801   13.1692 C.ar    1  UNL1        0.0388
     22 C          68.2834   92.1850   14.1673 C.ar    1  UNL1        0.0047
     23 C          67.9181   92.5969   15.5628 C.ar    1  UNL1        0.0208
     24 C          66.4756   92.7038   15.9598 C.ar    1  UNL1        0.1006
     25 N          65.3983   92.3989   14.9616 N.ar    1  UNL1       -0.2250
@<TRIPOS>BOND
     1     1     2    1
     2     2     3   ar
     3     3     4   ar
     4     4    14    1
     5    14    15    1
     6    15    16   ar
     7    16    17   ar
     8    17    18   ar
     9    18    20    1
    10    20    21   ar
    11    21    22   ar
    12    22    23   ar
    13    23    24   ar
    14    24    25   ar
    15    18    19   ar
    16     4     5   ar
    17     5     6   ar
    18     6     7   ar
    19     7     8   ar
    20     8     9   ar
    21     9    10   ar
    22    10     2   ar
    23    19    15   ar
    24     9     5    1
    25    25    20   ar
    26     1    11    1
    27     1    12    1
    28    10    13    1
@<TRIPOS>MOLECULE
*****
 25 28 0 0 0
SMALL
GASTEIGER

@<TRIPOS>ATOM
      1 N          65.9496   93.7527    9.7636 N.pl3   1  UNL1       -0.3441
      2 C          65.8208   93.2096   11.1560 C.ar    1  UNL1        0.1035
      3 C          64.8731   92.0813   11.4362 C.ar    1  UNL1        0.0297
      4 C          64.7443   91.5382   12.8286 C.ar    1  UNL1        0.0090
      5 C          65.5632   92.1237   13.9406 C.ar    1  UNL1        0.1366
      6 N          65.6492   91.7982   15.4024 N.ar    1  UNL1       -0.1258
      7 N          66.6501   92.7256   16.0255 N.ar    1  UNL1       -0.0406
      8 N          67.1827   93.6241   14.9489 N.ar    1  UNL1       -0.1095
      9 C          66.5109   93.2521   13.6603 C.ar    1  UNL1        0.1838
     10 N          66.6397   93.7951   12.2680 N.ar    1  UNL1       -0.3249
     11 H          65.4122   93.3685    9.0337 H       1  UNL1        0.1437
     12 H          66.5716   94.4933    9.5797 H       1  UNL1        0.1437
     13 H          67.2617   94.5357   12.0841 H       1  UNL1        0.1686
     14 C          63.7965   90.4098   13.1088 C.3     1  UNL1        0.0757
     15 C          62.7748   90.0163   12.0835 C.ar    1  UNL1        0.0850
     16 C          61.5658   90.8134   11.6925 C.ar    1  UNL1        0.0375
     17 C          60.8266   90.0463   10.6365 C.ar    1  UNL1        0.1033
     18 N          61.5787   88.7752   10.3748 N.ar    1  UNL1       -0.2110
     19 N          62.7829   88.7567   11.2692 N.ar    1  UNL1       -0.1678
     20 C          61.1943   87.7096    9.3915 C.ar    1  UNL1        0.1638
     21 C          62.1746   86.6332    9.0306 C.ar    1  UNL1        0.0388
     22 C          61.7903   85.5677    8.0473 C.ar    1  UNL1        0.0047
     23 C          60.4255   85.5786    7.4249 C.ar    1  UNL1        0.0208
     24 C          59.4452   86.6551    7.7859 C.ar    1  UNL1        0.1006
     25 N          59.8296   87.7206    8.7692 N.ar    1  UNL1       -0.2250
@<TRIPOS>BOND
     1     1     2    1
     2     2     3   ar
     3     3     4   ar
     4     4    14    1
     5    14    15    1
     6    15    16   ar
     7    16    17   ar
     8    17    18   ar
     9    18    20    1
    10    20    21   ar
    11    21    22   ar
    12    22    23   ar
    13    23    24   ar
    14    24    25   ar
    15    18    19   ar
    16     4     5   ar
    17     5     6   ar
    18     6     7   ar
    19     7     8   ar
    20     8     9   ar
    21     9    10   ar
    22    10     2   ar
    23    19    15   ar
    24     9     5    1
    25    25    20   ar
    26     1    11    1
    27     1    12    1
    28    10    13    1
@<TRIPOS>MOLECULE
*****
 25 28 0 0 0
SMALL
GASTEIGER

@<TRIPOS>ATOM
      1 N          61.1938   79.8931   13.8149 N.pl3   1  UNL1       -0.3441
      2 C          61.9840   81.1638   13.7106 C.ar    1  UNL1        0.1035
      3 C          62.3881   81.6874   12.3644 C.ar    1  UNL1        0.0297
      4 C          63.1784   82.9582   12.2601 C.ar    1  UNL1        0.0090
      5 C          63.5645   83.7052   13.5022 C.ar    1  UNL1        0.1366
      6 N          64.3353   84.9750   13.7110 N.ar    1  UNL1       -0.1258
      7 N          64.4076   85.2361   15.1863 N.ar    1  UNL1       -0.0406
      8 N          63.6815   84.1277   15.8893 N.ar    1  UNL1       -0.1095
      9 C          63.1604   83.1816   14.8485 C.ar    1  UNL1        0.1838
     10 N          62.3702   81.9109   14.9527 N.ar    1  UNL1       -0.3249
     11 H          60.9403   79.4027   12.9997 H       1  UNL1        0.1437
     12 H          60.9286   79.5494   14.6985 H       1  UNL1        0.1437
     13 H          62.1050   81.5672   15.8363 H       1  UNL1        0.1686
     14 C          63.5824   83.4818   10.9138 C.3     1  UNL1        0.0757
     15 C          62.9545   84.7336   10.3766 C.ar    1  UNL1        0.0850
     16 C          62.9379   85.1654    8.9402 C.ar    1  UNL1        0.0375
     17 C          62.2061   86.4721    8.8574 C.ar    1  UNL1        0.1033
     18 N          61.7704   86.8480   10.2426 N.ar    1  UNL1       -0.2110
     19 N          62.2330   85.7735   11.1815 N.ar    1  UNL1       -0.1678
     20 C          61.0063   88.0818   10.6223 C.ar    1  UNL1        0.1638
     21 C          61.2077   89.3546    9.8549 C.ar    1  UNL1        0.0388
     22 C          60.4437   90.5883   10.2345 C.ar    1  UNL1        0.0047
     23 C          59.4782   90.5491   11.3819 C.ar    1  UNL1        0.0208
     24 C          59.2768   89.2761   12.1494 C.ar    1  UNL1        0.1006
     25 N          60.0408   88.0425   11.7696 N.ar    1  UNL1       -0.2250
@<TRIPOS>BOND
     1     1     2    1
     2     2     3   ar
     3     3     4   ar
     4     4    14    1
     5    14    15    1
     6    15    16   ar
     7    16    17   ar
     8    17    18   ar
     9    18    20    1
    10    20    21   ar
    11    21    22   ar
    12    22    23   ar
    13    23    24   ar
    14    24    25   ar
    15    18    19   ar
    16     4     5   ar
    17     5     6   ar
    18     6     7   ar
    19     7     8   ar
    20     8     9   ar
    21     9    10   ar
    22    10     2   ar
    23    19    15   ar
    24     9     5    1
    25    25    20   ar
    26     1    11    1
    27     1    12    1
    28    10    13    1
@<TRIPOS>MOLECULE
*****
 25 28 0 0 0
SMALL
GASTEIGER

@<TRIPOS>ATOM
      1 N          62.7560   84.8619    7.1157 N.pl3   1  UNL1       -0.3441
      2 C          62.7432   85.1170    8.5938 C.ar    1  UNL1        0.1035
      3 C          62.1382   86.3796    9.1318 C.ar    1  UNL1        0.0297
      4 C          62.1254   86.6347   10.6100 C.ar    1  UNL1        0.0090
      5 C          62.7176   85.6269   11.5501 C.ar    1  UNL1        0.1366
      6 N          62.8488   85.6039   13.0441 N.ar    1  UNL1       -0.1258
      7 N          63.5349   84.3268   13.4294 N.ar    1  UNL1       -0.0406
      8 N          63.8277   83.5607   12.1736 N.ar    1  UNL1       -0.1095
      9 C          63.3226   84.3642   11.0120 C.ar    1  UNL1        0.1838
     10 N          63.3354   84.1092    9.5339 N.ar    1  UNL1       -0.3249
     11 H          62.3673   85.5233    6.4986 H       1  UNL1        0.1437
     12 H          63.1530   84.0331    6.7626 H       1  UNL1        0.1437
     13 H          63.7324   83.2804    9.1808 H       1  UNL1        0.1686
     14 C          61.5204   87.8975   11.1480 C.3     1  UNL1        0.0757
     15 C          62.3482   89.1448   11.2423 C.ar    1  UNL1        0.0850
     16 C          62.4560   90.2128   10.1946 C.ar    1  UNL1        0.0375
     17 C          63.3880   91.2711   10.7058 C.ar    1  UNL1        0.1033
     18 N          63.8562   90.8572   12.0694 N.ar    1  UNL1       -0.2110
     19 N          63.2136   89.5430   12.4010 N.ar    1  UNL1       -0.1678
     20 C          64.8012   91.6230   12.9474 C.ar    1  UNL1        0.1638
     21 C          65.0792   91.1490   14.3430 C.ar    1  UNL1        0.0388
     22 C          66.0241   91.9147   15.2210 C.ar    1  UNL1        0.0047
     23 C          66.6910   93.1546   14.7031 C.ar    1  UNL1        0.0208
     24 C          66.4130   93.6285   13.3074 C.ar    1  UNL1        0.1006
     25 N          65.4681   92.8628   12.4295 N.ar    1  UNL1       -0.2250
@<TRIPOS>BOND
     1     1     2    1
     2     2     3   ar
     3     3     4   ar
     4     4    14    1
     5    14    15    1
     6    15    16   ar
     7    16    17   ar
     8    17    18   ar
     9    18    20    1
    10    20    21   ar
    11    21    22   ar
    12    22    23   ar
    13    23    24   ar
    14    24    25   ar
    15    18    19   ar
    16     4     5   ar
    17     5     6   ar
    18     6     7   ar
    19     7     8   ar
    20     8     9   ar
    21     9    10   ar
    22    10     2   ar
    23    19    15   ar
    24     9     5    1
    25    25    20   ar
    26     1    11    1
    27     1    12    1
    28    10    13    1
@<TRIPOS>MOLECULE
*****
 25 28 0 0 0
SMALL
GASTEIGER

@<TRIPOS>ATOM
      1 N          59.7670   89.4370    7.7600 N.pl3   1  UNL1       -0.3441
      2 C          60.5194   88.8549    8.9198 C.ar    1  UNL1        0.1035
      3 C          60.9108   89.7285   10.0745 C.ar    1  UNL1        0.0297
      4 C          61.6631   89.1464   11.2343 C.ar    1  UNL1        0.0090
      5 C          62.0240   87.6904   11.2393 C.ar    1  UNL1        0.1366
      6 N          62.7562   86.8413   12.2357 N.ar    1  UNL1       -0.1258
      7 N          62.8173   85.4428   11.6968 N.ar    1  UNL1       -0.0406
      8 N          62.1229   85.4276   10.3673 N.ar    1  UNL1       -0.1095
      9 C          61.6326   86.8167   10.0846 C.ar    1  UNL1        0.1838
     10 N          60.8802   87.3989    8.9248 N.ar    1  UNL1       -0.3249
     11 H          59.5301   90.3926    7.7567 H       1  UNL1        0.1437
     12 H          59.5101   88.8636    7.0021 H       1  UNL1        0.1437
     13 H          60.6233   86.8255    8.1669 H       1  UNL1        0.1686
     14 C          62.0545   90.0202   12.3890 C.3     1  UNL1        0.0757
     15 C          63.3568   90.7638   12.3591 C.ar    1  UNL1        0.0850
     16 C          64.3519   90.8447   13.4786 C.ar    1  UNL1        0.0375
     17 C          65.5027   91.6880   13.0158 C.ar    1  UNL1        0.1033
     18 N          65.2190   92.1284   11.6103 N.ar    1  UNL1       -0.2110
     19 N          63.8927   91.5572   11.2044 N.ar    1  UNL1       -0.1678
     20 C          66.1058   92.9889   10.7598 C.ar    1  UNL1        0.1638
     21 C          67.3651   92.4211   10.1756 C.ar    1  UNL1        0.0388
     22 C          68.2519   93.2816    9.3251 C.ar    1  UNL1        0.0047
     23 C          67.8792   94.7100    9.0590 C.ar    1  UNL1        0.0208
     24 C          66.6197   95.2778    9.6433 C.ar    1  UNL1        0.1006
     25 N          65.7330   94.4173   10.4937 N.ar    1  UNL1       -0.2250
@<TRIPOS>BOND
     1     1     2    1
     2     2     3   ar
     3     3     4   ar
     4     4    14    1
     5    14    15    1
     6    15    16   ar
     7    16    17   ar
     8    17    18   ar
     9    18    20    1
    10    20    21   ar
    11    21    22   ar
    12    22    23   ar
    13    23    24   ar
    14    24    25   ar
    15    18    19   ar
    16     4     5   ar
    17     5     6   ar
    18     6     7   ar
    19     7     8   ar
    20     8     9   ar
    21     9    10   ar
    22    10     2   ar
    23    19    15   ar
    24     9     5    1
    25    25    20   ar
    26     1    11    1
    27     1    12    1
    28    10    13    1
@<TRIPOS>MOLECULE
*****
 25 28 0 0 0
SMALL
GASTEIGER

@<TRIPOS>ATOM
      1 N          60.3989   80.6064   14.3710 N.pl3   1  UNL1       -0.3441
      2 C          61.5509   81.3383   13.7486 C.ar    1  UNL1        0.1035
      3 C          62.3151   82.3520   14.5474 C.ar    1  UNL1        0.0297
      4 C          63.4671   83.0839   13.9250 C.ar    1  UNL1        0.0090
      5 C          63.8548   82.8019   12.5037 C.ar    1  UNL1        0.1366
      6 N          64.9364   83.3622   11.6284 N.ar    1  UNL1       -0.1258
      7 N          64.8406   82.6947   10.2885 N.ar    1  UNL1       -0.0406
      8 N          63.6999   81.7218   10.3358 N.ar    1  UNL1       -0.1095
      9 C          63.0906   81.7881   11.7048 C.ar    1  UNL1        0.1838
     10 N          61.9386   81.0563   12.3273 N.ar    1  UNL1       -0.3249
     11 H          60.1444   80.7914   15.3039 H       1  UNL1        0.1437
     12 H          59.8974   79.9410   13.8467 H       1  UNL1        0.1437
     13 H          61.4371   80.3909   11.8030 H       1  UNL1        0.1686
     14 C          64.2313   84.0977   14.7240 C.3     1  UNL1        0.0757
     15 C          64.1237   85.5550   14.3858 C.ar    1  UNL1        0.0850
     16 C          64.6201   86.6941   15.2260 C.ar    1  UNL1        0.0375
     17 C          64.3039   87.9723   14.5074 C.ar    1  UNL1        0.1033
     18 N          63.6122   87.6231   13.2231 N.ar    1  UNL1       -0.2110
     19 N          63.5008   86.1291   13.1479 N.ar    1  UNL1       -0.1678
     20 C          63.1184   88.5969   12.1944 C.ar    1  UNL1        0.1638
     21 C          63.5029   90.0438   12.2859 C.ar    1  UNL1        0.0388
     22 C          63.0093   91.0176   11.2573 C.ar    1  UNL1        0.0047
     23 C          62.1309   90.5443   10.1371 C.ar    1  UNL1        0.0208
     24 C          61.7464   89.0973   10.0457 C.ar    1  UNL1        0.1006
     25 N          62.2401   88.1236   11.0743 N.ar    1  UNL1       -0.2250
@<TRIPOS>BOND
     1     1     2    1
     2     2     3   ar
     3     3     4   ar
     4     4    14    1
     5    14    15    1
     6    15    16   ar
     7    16    17   ar
     8    17    18   ar
     9    18    20    1
    10    20    21   ar
    11    21    22   ar
    12    22    23   ar
    13    23    24   ar
    14    24    25   ar
    15    18    19   ar
    16     4     5   ar
    17     5     6   ar
    18     6     7   ar
    19     7     8   ar
    20     8     9   ar
    21     9    10   ar
    22    10     2   ar
    23    19    15   ar
    24     9     5    1
    25    25    20   ar
    26     1    11    1
    27     1    12    1
    28    10    13    1
@<TRIPOS>MOLECULE
*****
 25 28 0 0 0
SMALL
GASTEIGER

@<TRIPOS>ATOM
      1 N          62.6914   78.4602   10.0279 N.pl3   1  UNL1       -0.3441
      2 C          62.9008   79.6899   10.8611 C.ar    1  UNL1        0.1035
      3 C          63.5088   80.9165   10.2482 C.ar    1  UNL1        0.0297
      4 C          63.7182   82.1462   11.0814 C.ar    1  UNL1        0.0090
      5 C          63.3194   82.1492   12.5274 C.ar    1  UNL1        0.1366
      6 N          63.4033   83.2051   13.5895 N.ar    1  UNL1       -0.1258
      7 N          62.8471   82.6310   14.8588 N.ar    1  UNL1       -0.0406
      8 N          62.4194   81.2203   14.5811 N.ar    1  UNL1       -0.1095
      9 C          62.7113   80.9225   13.1402 C.ar    1  UNL1        0.1838
     10 N          62.5020   79.6929   12.3071 N.ar    1  UNL1       -0.3249
     11 H          62.9531   78.4582    9.0788 H       1  UNL1        0.1437
     12 H          62.2923   77.6551   10.4302 H       1  UNL1        0.1437
     13 H          62.1029   78.8878   12.7093 H       1  UNL1        0.1686
     14 C          64.3262   83.3729   10.4685 C.3     1  UNL1        0.0757
     15 C          63.4473   84.5058   10.0283 C.ar    1  UNL1        0.0850
     16 C          62.9104   84.7187    8.6440 C.ar    1  UNL1        0.0375
     17 C          62.0821   85.9693    8.6554 C.ar    1  UNL1        0.1033
     18 N          62.1071   86.5292   10.0467 N.ar    1  UNL1       -0.2110
     19 N          62.9509   85.6247   10.8952 N.ar    1  UNL1       -0.1678
     20 C          61.4107   87.7750   10.5085 C.ar    1  UNL1        0.1638
     21 C          61.9629   89.1214   10.1453 C.ar    1  UNL1        0.0388
     22 C          61.2666   90.3672   10.6070 C.ar    1  UNL1        0.0047
     23 C          60.0179   90.2663   11.4321 C.ar    1  UNL1        0.0208
     24 C          59.4657   88.9198   11.7954 C.ar    1  UNL1        0.1006
     25 N          60.1621   87.6741   11.3335 N.ar    1  UNL1       -0.2250
@<TRIPOS>BOND
     1     1     2    1
     2     2     3   ar
     3     3     4   ar
     4     4    14    1
     5    14    15    1
     6    15    16   ar
     7    16    17   ar
     8    17    18   ar
     9    18    20    1
    10    20    21   ar
    11    21    22   ar
    12    22    23   ar
    13    23    24   ar
    14    24    25   ar
    15    18    19   ar
    16     4     5   ar
    17     5     6   ar
    18     6     7   ar
    19     7     8   ar
    20     8     9   ar
    21     9    10   ar
    22    10     2   ar
    23    19    15   ar
    24     9     5    1
    25    25    20   ar
    26     1    11    1
    27     1    12    1
    28    10    13    1
@<TRIPOS>MOLECULE
*****
 25 28 0 0 0
SMALL
GASTEIGER

@<TRIPOS>ATOM
      1 N          61.6410   79.6462   13.8023 N.pl3   1  UNL1       -0.3441
      2 C          62.1732   81.0486   13.7953 C.ar    1  UNL1        0.1035
      3 C          62.9606   81.5461   12.6196 C.ar    1  UNL1        0.0297
      4 C          63.4928   82.9485   12.6125 C.ar    1  UNL1        0.0090
      5 C          63.2376   83.8534   13.7813 C.ar    1  UNL1        0.1366
      6 N          63.6330   85.2740   14.0558 N.ar    1  UNL1       -0.1258
      7 N          63.0899   85.6545   15.4013 N.ar    1  UNL1       -0.0406
      8 N          62.3588   84.4691   15.9583 N.ar    1  UNL1       -0.1095
      9 C          62.4501   83.3559   14.9570 C.ar    1  UNL1        0.1838
     10 N          61.9179   81.9535   14.9640 N.ar    1  UNL1       -0.3249
     11 H          61.8085   79.0522   13.0353 H       1  UNL1        0.1437
     12 H          61.1241   79.3197   14.5740 H       1  UNL1        0.1437
     13 H          61.4011   81.6269   15.7357 H       1  UNL1        0.1686
     14 C          64.2803   83.4460   11.4367 C.3     1  UNL1        0.0757
     15 C          63.6052   84.2574   10.3710 C.ar    1  UNL1        0.0850
     16 C          63.6837   84.0119    8.8934 C.ar    1  UNL1        0.0375
     17 C          62.8600   85.0596    8.2051 C.ar    1  UNL1        0.1033
     18 N          62.2723   85.9525    9.2573 N.ar    1  UNL1       -0.2110
     19 N          62.7329   85.4567   10.5960 N.ar    1  UNL1       -0.1678
     20 C          61.3806   87.1339    9.0137 C.ar    1  UNL1        0.1638
     21 C          61.5781   88.3970    9.7981 C.ar    1  UNL1        0.0388
     22 C          60.6864   89.5784    9.5546 C.ar    1  UNL1        0.0047
     23 C          59.5972   89.4966    8.5265 C.ar    1  UNL1        0.0208
     24 C          59.3998   88.2334    7.7420 C.ar    1  UNL1        0.1006
     25 N          60.2915   87.0521    7.9856 N.ar    1  UNL1       -0.2250
@<TRIPOS>BOND
     1     1     2    1
     2     2     3   ar
     3     3     4   ar
     4     4    14    1
     5    14    15    1
     6    15    16   ar
     7    16    17   ar
     8    17    18   ar
     9    18    20    1
    10    20    21   ar
    11    21    22   ar
    12    22    23   ar
    13    23    24   ar
    14    24    25   ar
    15    18    19   ar
    16     4     5   ar
    17     5     6   ar
    18     6     7   ar
    19     7     8   ar
    20     8     9   ar
    21     9    10   ar
    22    10     2   ar
    23    19    15   ar
    24     9     5    1
    25    25    20   ar
    26     1    11    1
    27     1    12    1
    28    10    13    1
