@<TRIPOS>MOLECULE
*****
 28 31 0 0 0
SMALL
GASTEIGER

@<TRIPOS>ATOM
      1 C          62.6980   88.8006   11.7158 C.3     1  UNL1        0.0233
      2 C          63.2240   87.7502   12.6485 C.3     1  UNL1        0.0953
      3 C          62.9203   86.3031   12.3963 C.3     1  UNL1        0.1106
      4 N          63.4463   85.2527   13.3290 N.pl3   1  UNL1       -0.3041
      5 C          64.2760   85.6493   14.5139 C.3     1  UNL1        0.1123
      6 C          64.5798   87.0964   14.7662 C.3     1  UNL1        0.1149
      7 N          64.0538   88.1468   13.8335 N.pl3   1  UNL1       -0.2777
      8 C          64.3576   89.5940   14.0857 C.ar    1  UNL1        0.2035
      9 N          65.0760   90.4018   13.0459 N.ar    1  UNL1       -0.2133
     10 C          65.3798   91.8489   13.2981 C.ar    1  UNL1        0.1065
     11 C          64.9652   92.4882   14.5902 C.ar    1  UNL1        0.0815
     12 C          64.2467   91.6803   15.6301 C.ar    1  UNL1        0.2646
     13 O          63.8321   92.3195   16.9221 O.2     1  UNL1       -0.2668
     14 N          63.9429   90.2332   15.3778 N.ar    1  UNL1       -0.2667
     15 C          63.2245   89.4253   16.4176 C.3     1  UNL1        0.1363
     16 C          66.0982   92.6567   12.2583 C.ar    1  UNL1        0.1024
     17 C          67.0119   91.9787   11.2809 C.ar    1  UNL1        0.0414
     18 C          67.7303   92.7865   10.2410 C.ar    1  UNL1        0.1023
     19 N          67.5351   94.2724   10.1786 N.ar    1  UNL1       -0.2224
     20 C          66.6213   94.9506   11.1561 C.ar    1  UNL1        0.1989
     21 N          65.9029   94.1427   12.1959 N.ar    1  UNL1       -0.2224
     22 C          63.1425   83.8055   13.0767 C.ar    1  UNL1        0.0502
     23 C          62.6009   82.9490   14.1827 C.ar    1  UNL1        0.0147
     24 C          62.2971   81.5020   13.9304 C.ar    1  UNL1        0.0036
     25 C          62.5349   80.9113   12.5722 C.ar    1  UNL1        0.0297
     26 C          63.0765   81.7678   11.4663 C.ar    1  UNL1        0.1414
     27 F          63.3144   81.1772   10.1082 F       1  UNL1       -0.2041
     28 C          63.3803   83.2150   11.7186 C.ar    1  UNL1        0.0441
@<TRIPOS>BOND
     1     2     1    1
     2     2     3    1
     3     3     4    1
     4     4    22    1
     5    22    23   ar
     6    23    24   ar
     7    24    25   ar
     8    25    26   ar
     9    26    27    1
    10    26    28   ar
    11     4     5    1
    12     5     6    1
    13     6     7    1
    14     7     8    1
    15     8     9   ar
    16     9    10   ar
    17    10    16    1
    18    16    17   ar
    19    17    18   ar
    20    18    19   ar
    21    19    20   ar
    22    20    21   ar
    23    10    11   ar
    24    11    12   ar
    25    12    13    2
    26    12    14   ar
    27    14    15    1
    28     7     2    1
    29    14     8   ar
    30    28    22   ar
    31    21    16   ar
@<TRIPOS>MOLECULE
*****
 28 31 0 0 0
SMALL
GASTEIGER

@<TRIPOS>ATOM
      1 C          62.6365   89.2781   12.2758 C.3     1  UNL1        0.0233
      2 C          63.8127   90.0701   12.7649 C.3     1  UNL1        0.0953
      3 C          64.2670   91.2829   12.0083 C.3     1  UNL1        0.1106
      4 N          65.4433   92.0750   12.4973 N.pl3   1  UNL1       -0.3041
      5 C          66.1652   91.6541   13.7430 C.3     1  UNL1        0.1123
      6 C          65.7108   90.4413   14.4996 C.3     1  UNL1        0.1149
      7 N          64.5346   89.6492   14.0106 N.pl3   1  UNL1       -0.2777
      8 C          64.0802   88.4363   14.7672 C.ar    1  UNL1        0.2035
      9 N          64.1701   87.0798   14.1335 N.ar    1  UNL1       -0.2133
     10 C          63.7158   85.8669   14.8901 C.ar    1  UNL1        0.1065
     11 C          63.1716   86.0105   16.2805 C.ar    1  UNL1        0.0815
     12 C          63.0817   87.3671   16.9143 C.ar    1  UNL1        0.2646
     13 O          62.5375   87.5108   18.3046 O.2     1  UNL1       -0.2668
     14 N          63.5361   88.5800   16.1576 N.ar    1  UNL1       -0.2667
     15 C          63.4462   89.9366   16.7914 C.3     1  UNL1        0.1363
     16 C          63.8057   84.5103   14.2563 C.ar    1  UNL1        0.1024
     17 C          64.1819   84.3816   12.8100 C.ar    1  UNL1        0.0414
     18 C          64.2718   83.0251   12.1762 C.ar    1  UNL1        0.1023
     19 N          63.9855   81.7972   12.9888 N.ar    1  UNL1       -0.2224
     20 C          63.6093   81.9258   14.4351 C.ar    1  UNL1        0.1989
     21 N          63.5194   83.2824   15.0689 N.ar    1  UNL1       -0.2224
     22 C          65.8976   93.2879   11.7407 C.ar    1  UNL1        0.0502
     23 C          65.9477   94.6225   12.4234 C.ar    1  UNL1        0.0147
     24 C          66.4020   95.8354   11.6668 C.ar    1  UNL1        0.0036
     25 C          66.8062   95.7137   10.2274 C.ar    1  UNL1        0.0297
     26 C          66.7561   94.3790    9.5446 C.ar    1  UNL1        0.1414
     27 F          67.1603   94.2572    8.1053 F       1  UNL1       -0.2041
     28 C          66.3018   93.1661   10.3013 C.ar    1  UNL1        0.0441
@<TRIPOS>BOND
     1     2     1    1
     2     2     3    1
     3     3     4    1
     4     4    22    1
     5    22    23   ar
     6    23    24   ar
     7    24    25   ar
     8    25    26   ar
     9    26    27    1
    10    26    28   ar
    11     4     5    1
    12     5     6    1
    13     6     7    1
    14     7     8    1
    15     8     9   ar
    16     9    10   ar
    17    10    16    1
    18    16    17   ar
    19    17    18   ar
    20    18    19   ar
    21    19    20   ar
    22    20    21   ar
    23    10    11   ar
    24    11    12   ar
    25    12    13    2
    26    12    14   ar
    27    14    15    1
    28     7     2    1
    29    14     8   ar
    30    28    22   ar
    31    21    16   ar
@<TRIPOS>MOLECULE
*****
 28 31 0 0 0
SMALL
GASTEIGER

@<TRIPOS>ATOM
      1 C          64.3108   86.7695   14.7460 C.3     1  UNL1        0.0233
      2 C          63.6459   86.0308   13.6225 C.3     1  UNL1        0.0953
      3 C          63.4915   84.5404   13.6925 C.3     1  UNL1        0.1106
      4 N          62.8267   83.8016   12.5691 N.pl3   1  UNL1       -0.3041
      5 C          62.3161   84.5533   11.3756 C.3     1  UNL1        0.1123
      6 C          62.4705   86.0436   11.3056 C.3     1  UNL1        0.1149
      7 N          63.1354   86.7824   12.4291 N.pl3   1  UNL1       -0.2777
      8 C          63.2897   88.2728   12.3590 C.ar    1  UNL1        0.2035
      9 N          63.9577   89.0112   13.4809 N.ar    1  UNL1       -0.2133
     10 C          64.1121   90.5015   13.4109 C.ar    1  UNL1        0.1065
     11 C          63.5984   91.2536   12.2190 C.ar    1  UNL1        0.0815
     12 C          62.9304   90.5153   11.0971 C.ar    1  UNL1        0.2646
     13 O          62.4167   91.2673    9.9053 O.2     1  UNL1       -0.2668
     14 N          62.7760   89.0248   11.1672 N.ar    1  UNL1       -0.2667
     15 C          62.1080   88.2865   10.0453 C.3     1  UNL1        0.1363
     16 C          64.7801   91.2399   14.5328 C.ar    1  UNL1        0.1024
     17 C          66.2295   91.6117   14.4279 C.ar    1  UNL1        0.0414
     18 C          66.8975   92.3500   15.5497 C.ar    1  UNL1        0.1023
     19 N          66.1161   92.7166   16.7765 N.ar    1  UNL1       -0.2224
     20 C          64.6667   92.3448   16.8815 C.ar    1  UNL1        0.1989
     21 N          63.9987   91.6064   15.7596 N.ar    1  UNL1       -0.2224
     22 C          62.6723   82.3112   12.6391 C.ar    1  UNL1        0.0502
     23 C          62.3163   81.6544   13.9398 C.ar    1  UNL1        0.0147
     24 C          62.1620   80.1640   14.0099 C.ar    1  UNL1        0.0036
     25 C          62.3636   79.3304   12.7792 C.ar    1  UNL1        0.0297
     26 C          62.7197   79.9872   11.4785 C.ar    1  UNL1        0.1414
     27 F          62.9213   79.1537   10.2479 F       1  UNL1       -0.2041
     28 C          62.8740   81.4777   11.4085 C.ar    1  UNL1        0.0441
@<TRIPOS>BOND
     1     2     1    1
     2     2     3    1
     3     3     4    1
     4     4    22    1
     5    22    23   ar
     6    23    24   ar
     7    24    25   ar
     8    25    26   ar
     9    26    27    1
    10    26    28   ar
    11     4     5    1
    12     5     6    1
    13     6     7    1
    14     7     8    1
    15     8     9   ar
    16     9    10   ar
    17    10    16    1
    18    16    17   ar
    19    17    18   ar
    20    18    19   ar
    21    19    20   ar
    22    20    21   ar
    23    10    11   ar
    24    11    12   ar
    25    12    13    2
    26    12    14   ar
    27    14    15    1
    28     7     2    1
    29    14     8   ar
    30    28    22   ar
    31    21    16   ar
@<TRIPOS>MOLECULE
*****
 28 31 0 0 0
SMALL
GASTEIGER

@<TRIPOS>ATOM
      1 C          62.3675   88.1022   11.5278 C.3     1  UNL1        0.0233
      2 C          63.0035   87.0134   12.3401 C.3     1  UNL1        0.0953
      3 C          62.8422   85.5797   11.9296 C.3     1  UNL1        0.1106
      4 N          63.4781   84.4909   12.7420 N.pl3   1  UNL1       -0.3041
      5 C          64.2754   84.8357   13.9648 C.3     1  UNL1        0.1123
      6 C          64.4367   86.2693   14.3753 C.3     1  UNL1        0.1149
      7 N          63.8008   87.3582   13.5630 N.pl3   1  UNL1       -0.2777
      8 C          63.9621   88.7919   13.9735 C.ar    1  UNL1        0.2035
      9 N          64.4782   89.8001   12.9901 N.ar    1  UNL1       -0.2133
     10 C          64.6396   91.2338   13.4005 C.ar    1  UNL1        0.1065
     11 C          64.2848   91.6593   14.7945 C.ar    1  UNL1        0.0815
     12 C          63.7687   90.6511   15.7780 C.ar    1  UNL1        0.2646
     13 O          63.4140   91.0765   17.1719 O.2     1  UNL1       -0.2668
     14 N          63.6074   89.2174   15.3675 N.ar    1  UNL1       -0.2667
     15 C          63.0913   88.2092   16.3509 C.3     1  UNL1        0.1363
     16 C          65.1556   92.2420   12.4171 C.ar    1  UNL1        0.1024
     17 C          66.0263   93.3697   12.8862 C.ar    1  UNL1        0.0414
     18 C          66.5424   94.3779   11.9027 C.ar    1  UNL1        0.1023
     19 N          66.1878   94.2584   10.4502 N.ar    1  UNL1       -0.2224
     20 C          65.3171   93.1306    9.9810 C.ar    1  UNL1        0.1989
     21 N          64.8010   92.1224   10.9645 N.ar    1  UNL1       -0.2224
     22 C          63.3168   83.0571   12.3315 C.ar    1  UNL1        0.0502
     23 C          63.5327   82.6575   10.9019 C.ar    1  UNL1        0.0147
     24 C          63.3714   81.2239   10.4913 C.ar    1  UNL1        0.0036
     25 C          62.9941   80.1898   11.5103 C.ar    1  UNL1        0.0297
     26 C          62.7782   80.5894   12.9399 C.ar    1  UNL1        0.1414
     27 F          62.4009   79.5553   13.9589 F       1  UNL1       -0.2041
     28 C          62.9395   82.0231   13.3505 C.ar    1  UNL1        0.0441
@<TRIPOS>BOND
     1     2     1    1
     2     2     3    1
     3     3     4    1
     4     4    22    1
     5    22    23   ar
     6    23    24   ar
     7    24    25   ar
     8    25    26   ar
     9    26    27    1
    10    26    28   ar
    11     4     5    1
    12     5     6    1
    13     6     7    1
    14     7     8    1
    15     8     9   ar
    16     9    10   ar
    17    10    16    1
    18    16    17   ar
    19    17    18   ar
    20    18    19   ar
    21    19    20   ar
    22    20    21   ar
    23    10    11   ar
    24    11    12   ar
    25    12    13    2
    26    12    14   ar
    27    14    15    1
    28     7     2    1
    29    14     8   ar
    30    28    22   ar
    31    21    16   ar
@<TRIPOS>MOLECULE
*****
 28 31 0 0 0
SMALL
GASTEIGER

@<TRIPOS>ATOM
      1 C          62.3239   86.6435    9.0433 C.3     1  UNL1        0.0233
      2 C          62.4079   85.9206   10.3550 C.3     1  UNL1        0.0953
      3 C          62.4888   84.4231   10.3822 C.3     1  UNL1        0.1106
      4 N          62.5728   83.7002   11.6938 N.pl3   1  UNL1       -0.3041
      5 C          62.5759   84.4749   12.9782 C.3     1  UNL1        0.1123
      6 C          62.4950   85.9724   12.9510 C.3     1  UNL1        0.1149
      7 N          62.4110   86.6953   11.6394 N.pl3   1  UNL1       -0.2777
      8 C          62.3301   88.1929   11.6123 C.ar    1  UNL1        0.2035
      9 N          63.5197   89.0156   12.0100 N.ar    1  UNL1       -0.2133
     10 C          63.4388   90.5131   11.9828 C.ar    1  UNL1        0.1065
     11 C          62.1683   91.1881   11.5580 C.ar    1  UNL1        0.0815
     12 C          60.9788   90.3654   11.1602 C.ar    1  UNL1        0.2646
     13 O          59.7084   91.0403   10.7354 O.2     1  UNL1       -0.2668
     14 N          61.0597   88.8678   11.1874 N.ar    1  UNL1       -0.2667
     15 C          59.8701   88.0451   10.7897 C.3     1  UNL1        0.1363
     16 C          64.6284   91.3358   12.3806 C.ar    1  UNL1        0.1024
     17 C          65.2073   92.3310   11.4191 C.ar    1  UNL1        0.0414
     18 C          66.3968   93.1537   11.8169 C.ar    1  UNL1        0.1023
     19 N          67.0075   92.9811   13.1760 N.ar    1  UNL1       -0.2224
     20 C          66.4286   91.9859   14.1375 C.ar    1  UNL1        0.1989
     21 N          65.2390   91.1632   13.7398 N.ar    1  UNL1       -0.2224
     22 C          62.6537   82.2026   11.7210 C.ar    1  UNL1        0.0502
     23 C          62.4320   81.4627   13.0068 C.ar    1  UNL1        0.0147
     24 C          62.5129   79.9652   13.0340 C.ar    1  UNL1        0.0036
     25 C          62.8155   79.2074   11.7753 C.ar    1  UNL1        0.0297
     26 C          63.0373   79.9473   10.4894 C.ar    1  UNL1        0.1414
     27 F          63.3399   79.1896    9.2308 F       1  UNL1       -0.2041
     28 C          62.9564   81.4449   10.4623 C.ar    1  UNL1        0.0441
@<TRIPOS>BOND
     1     2     1    1
     2     2     3    1
     3     3     4    1
     4     4    22    1
     5    22    23   ar
     6    23    24   ar
     7    24    25   ar
     8    25    26   ar
     9    26    27    1
    10    26    28   ar
    11     4     5    1
    12     5     6    1
    13     6     7    1
    14     7     8    1
    15     8     9   ar
    16     9    10   ar
    17    10    16    1
    18    16    17   ar
    19    17    18   ar
    20    18    19   ar
    21    19    20   ar
    22    20    21   ar
    23    10    11   ar
    24    11    12   ar
    25    12    13    2
    26    12    14   ar
    27    14    15    1
    28     7     2    1
    29    14     8   ar
    30    28    22   ar
    31    21    16   ar
@<TRIPOS>MOLECULE
*****
 28 31 0 0 0
SMALL
GASTEIGER

@<TRIPOS>ATOM
      1 C          63.7759   86.7484   14.1843 C.3     1  UNL1        0.0233
      2 C          63.2063   85.9820   13.0276 C.3     1  UNL1        0.0953
      3 C          63.2452   84.4825   13.0294 C.3     1  UNL1        0.1106
      4 N          62.6756   83.7160   11.8727 N.pl3   1  UNL1       -0.3041
      5 C          62.0670   84.4490   10.7141 C.3     1  UNL1        0.1123
      6 C          62.0281   85.9485   10.7122 C.3     1  UNL1        0.1149
      7 N          62.5978   86.7149   11.8690 N.pl3   1  UNL1       -0.2777
      8 C          62.5588   88.2145   11.8671 C.ar    1  UNL1        0.2035
      9 N          63.7003   88.9951   12.4483 N.ar    1  UNL1       -0.2133
     10 C          63.6614   90.4945   12.4464 C.ar    1  UNL1        0.1065
     11 C          62.4810   91.2135   11.8633 C.ar    1  UNL1        0.0815
     12 C          61.3396   90.4329   11.2821 C.ar    1  UNL1        0.2646
     13 O          60.1592   91.1518   10.6991 O.2     1  UNL1       -0.2668
     14 N          61.3785   88.9334   11.2840 N.ar    1  UNL1       -0.2667
     15 C          60.2371   88.1528   10.7028 C.3     1  UNL1        0.1363
     16 C          64.8028   91.2751   13.0276 C.ar    1  UNL1        0.1024
     17 C          65.4266   90.8413   14.3209 C.ar    1  UNL1        0.0414
     18 C          66.5680   91.6219   14.9021 C.ar    1  UNL1        0.1023
     19 N          67.0857   92.8363   14.1900 N.ar    1  UNL1       -0.2224
     20 C          66.4619   93.2702   12.8967 C.ar    1  UNL1        0.1989
     21 N          65.3205   92.4896   12.3155 N.ar    1  UNL1       -0.2224
     22 C          62.7145   82.2165   11.8745 C.ar    1  UNL1        0.0502
     23 C          62.4948   81.4621   13.1523 C.ar    1  UNL1        0.0147
     24 C          62.5338   79.9627   13.1543 C.ar    1  UNL1        0.0036
     25 C          62.7924   79.2175   11.8784 C.ar    1  UNL1        0.0297
     26 C          63.0121   79.9718   10.6006 C.ar    1  UNL1        0.1414
     27 F          63.2707   79.2267    9.3247 F       1  UNL1       -0.2041
     28 C          62.9731   81.4713   10.5987 C.ar    1  UNL1        0.0441
@<TRIPOS>BOND
     1     2     1    1
     2     2     3    1
     3     3     4    1
     4     4    22    1
     5    22    23   ar
     6    23    24   ar
     7    24    25   ar
     8    25    26   ar
     9    26    27    1
    10    26    28   ar
    11     4     5    1
    12     5     6    1
    13     6     7    1
    14     7     8    1
    15     8     9   ar
    16     9    10   ar
    17    10    16    1
    18    16    17   ar
    19    17    18   ar
    20    18    19   ar
    21    19    20   ar
    22    20    21   ar
    23    10    11   ar
    24    11    12   ar
    25    12    13    2
    26    12    14   ar
    27    14    15    1
    28     7     2    1
    29    14     8   ar
    30    28    22   ar
    31    21    16   ar
@<TRIPOS>MOLECULE
*****
 28 31 0 0 0
SMALL
GASTEIGER

@<TRIPOS>ATOM
      1 C          63.0921   89.0279   12.2070 C.3     1  UNL1        0.0233
      2 C          63.5090   87.8068   12.9719 C.3     1  UNL1        0.0953
      3 C          63.2166   86.4418   12.4232 C.3     1  UNL1        0.1106
      4 N          63.6335   85.2207   13.1882 N.pl3   1  UNL1       -0.3041
      5 C          64.3429   85.3647   14.5019 C.3     1  UNL1        0.1123
      6 C          64.6353   86.7297   15.0507 C.3     1  UNL1        0.1149
      7 N          64.2184   87.9507   14.2857 N.pl3   1  UNL1       -0.2777
      8 C          64.5109   89.3158   14.8345 C.ar    1  UNL1        0.2035
      9 N          65.8572   89.9397   14.6150 N.ar    1  UNL1       -0.2133
     10 C          66.1498   91.3047   15.1638 C.ar    1  UNL1        0.1065
     11 C          65.0960   92.0458   15.9322 C.ar    1  UNL1        0.0815
     12 C          63.7496   91.4219   16.1517 C.ar    1  UNL1        0.2646
     13 O          62.6959   92.1630   16.9200 O.2     1  UNL1       -0.2668
     14 N          63.4571   90.0569   15.6029 N.ar    1  UNL1       -0.2667
     15 C          62.1108   89.4329   15.8224 C.3     1  UNL1        0.1363
     16 C          67.4961   91.9286   14.9443 C.ar    1  UNL1        0.1024
     17 C          68.0783   92.8408   15.9829 C.ar    1  UNL1        0.0414
     18 C          69.4246   93.4648   15.7634 C.ar    1  UNL1        0.1023
     19 N          70.1887   93.1765   14.5053 N.ar    1  UNL1       -0.2224
     20 C          69.6065   92.2642   13.4666 C.ar    1  UNL1        0.1989
     21 N          68.2602   91.6403   13.6861 N.ar    1  UNL1       -0.2224
     22 C          63.3410   83.8557   12.6393 C.ar    1  UNL1        0.0502
     23 C          63.8946   83.4491   11.3058 C.ar    1  UNL1        0.0147
     24 C          63.6022   82.0841   10.7570 C.ar    1  UNL1        0.0036
     25 C          62.7560   81.1257   11.5416 C.ar    1  UNL1        0.0297
     26 C          62.2024   81.5323   12.8751 C.ar    1  UNL1        0.1414
     27 F          61.3564   80.5739   13.6597 F       1  UNL1       -0.2041
     28 C          62.4949   82.8973   13.4239 C.ar    1  UNL1        0.0441
@<TRIPOS>BOND
     1     2     1    1
     2     2     3    1
     3     3     4    1
     4     4    22    1
     5    22    23   ar
     6    23    24   ar
     7    24    25   ar
     8    25    26   ar
     9    26    27    1
    10    26    28   ar
    11     4     5    1
    12     5     6    1
    13     6     7    1
    14     7     8    1
    15     8     9   ar
    16     9    10   ar
    17    10    16    1
    18    16    17   ar
    19    17    18   ar
    20    18    19   ar
    21    19    20   ar
    22    20    21   ar
    23    10    11   ar
    24    11    12   ar
    25    12    13    2
    26    12    14   ar
    27    14    15    1
    28     7     2    1
    29    14     8   ar
    30    28    22   ar
    31    21    16   ar
@<TRIPOS>MOLECULE
*****
 28 31 0 0 0
SMALL
GASTEIGER

@<TRIPOS>ATOM
      1 C          63.2168   91.4537   10.3856 C.3     1  UNL1        0.0233
      2 C          63.7691   90.9078   11.6690 C.3     1  UNL1        0.0953
      3 C          64.8914   91.6190   12.3651 C.3     1  UNL1        0.1106
      4 N          65.4437   91.0732   13.6485 N.pl3   1  UNL1       -0.3041
      5 C          64.8736   89.8161   14.2357 C.3     1  UNL1        0.1123
      6 C          63.7513   89.1050   13.5396 C.3     1  UNL1        0.1149
      7 N          63.1991   89.6508   12.2562 N.pl3   1  UNL1       -0.2777
      8 C          62.0767   88.9395   11.5601 C.ar    1  UNL1        0.2035
      9 N          62.3735   87.9789   10.4470 N.ar    1  UNL1       -0.2133
     10 C          61.2513   87.2677    9.7509 C.ar    1  UNL1        0.1065
     11 C          59.8321   87.5171   10.1679 C.ar    1  UNL1        0.0815
     12 C          59.5353   88.4777   11.2810 C.ar    1  UNL1        0.2646
     13 O          58.1162   88.7271   11.6980 O.2     1  UNL1       -0.2668
     14 N          60.6576   89.1890   11.9771 N.ar    1  UNL1       -0.2667
     15 C          60.3608   90.1496   13.0902 C.3     1  UNL1        0.1363
     16 C          61.5481   86.3070    8.6377 C.ar    1  UNL1        0.1024
     17 C          62.9008   85.6662    8.5408 C.ar    1  UNL1        0.0414
     18 C          63.1976   84.7055    7.4277 C.ar    1  UNL1        0.1023
     19 N          62.1417   84.3857    6.4115 N.ar    1  UNL1       -0.2224
     20 C          60.7889   85.0265    6.5084 C.ar    1  UNL1        0.1989
     21 N          60.4921   85.9872    7.6215 N.ar    1  UNL1       -0.2224
     22 C          66.5660   91.7844   14.3446 C.ar    1  UNL1        0.0502
     23 C          66.3053   92.5288   15.6205 C.ar    1  UNL1        0.0147
     24 C          67.4276   93.2401   16.3166 C.ar    1  UNL1        0.0036
     25 C          68.8107   93.2069   15.7368 C.ar    1  UNL1        0.0297
     26 C          69.0714   92.4625   14.4610 C.ar    1  UNL1        0.1414
     27 F          70.4544   92.4293   13.8812 F       1  UNL1       -0.2041
     28 C          67.9490   91.7512   13.7648 C.ar    1  UNL1        0.0441
@<TRIPOS>BOND
     1     2     1    1
     2     2     3    1
     3     3     4    1
     4     4    22    1
     5    22    23   ar
     6    23    24   ar
     7    24    25   ar
     8    25    26   ar
     9    26    27    1
    10    26    28   ar
    11     4     5    1
    12     5     6    1
    13     6     7    1
    14     7     8    1
    15     8     9   ar
    16     9    10   ar
    17    10    16    1
    18    16    17   ar
    19    17    18   ar
    20    18    19   ar
    21    19    20   ar
    22    20    21   ar
    23    10    11   ar
    24    11    12   ar
    25    12    13    2
    26    12    14   ar
    27    14    15    1
    28     7     2    1
    29    14     8   ar
    30    28    22   ar
    31    21    16   ar
@<TRIPOS>MOLECULE
*****
 28 31 0 0 0
SMALL
GASTEIGER

@<TRIPOS>ATOM
      1 C          64.1910   87.6475   14.6990 C.3     1  UNL1        0.0233
      2 C          64.4600   88.9529   14.0107 C.3     1  UNL1        0.0953
      3 C          65.4050   89.9433   14.6238 C.3     1  UNL1        0.1106
      4 N          65.6739   91.2486   13.9355 N.pl3   1  UNL1       -0.3041
      5 C          64.9979   91.5635   12.6341 C.3     1  UNL1        0.1123
      6 C          64.0529   90.5731   12.0209 C.3     1  UNL1        0.1149
      7 N          63.7840   89.2677   12.7092 N.pl3   1  UNL1       -0.2777
      8 C          62.8389   88.2773   12.0960 C.ar    1  UNL1        0.2035
      9 N          63.1810   86.8168   12.0933 N.ar    1  UNL1       -0.2133
     10 C          62.2360   85.8263   11.4802 C.ar    1  UNL1        0.1065
     11 C          60.9490   86.2963   10.8696 C.ar    1  UNL1        0.0815
     12 C          60.6069   87.7568   10.8723 C.ar    1  UNL1        0.2646
     13 O          59.3200   88.2268   10.2618 O.2     1  UNL1       -0.2668
     14 N          61.5520   88.7473   11.4855 N.ar    1  UNL1       -0.2667
     15 C          61.2100   90.2078   11.4882 C.3     1  UNL1        0.1363
     16 C          62.5780   84.3658   11.4775 C.ar    1  UNL1        0.1024
     17 C          63.2983   83.7664   10.3062 C.ar    1  UNL1        0.0414
     18 C          63.6403   82.3059   10.3035 C.ar    1  UNL1        0.1023
     19 N          63.2621   81.4449   11.4721 N.ar    1  UNL1       -0.2224
     20 C          62.5418   82.0443   12.6434 C.ar    1  UNL1        0.1989
     21 N          62.1998   83.5048   12.6461 N.ar    1  UNL1       -0.2224
     22 C          66.6189   92.2391   14.5487 C.ar    1  UNL1        0.0502
     23 C          66.4935   93.6975   14.2211 C.ar    1  UNL1        0.0147
     24 C          67.4384   94.6880   14.8342 C.ar    1  UNL1        0.0036
     25 C          68.5089   94.2201   15.7751 C.ar    1  UNL1        0.0297
     26 C          68.6344   92.7617   16.1027 C.ar    1  UNL1        0.1414
     27 F          69.7049   92.2937   17.0435 F       1  UNL1       -0.2041
     28 C          67.6894   91.7712   15.4895 C.ar    1  UNL1        0.0441
@<TRIPOS>BOND
     1     2     1    1
     2     2     3    1
     3     3     4    1
     4     4    22    1
     5    22    23   ar
     6    23    24   ar
     7    24    25   ar
     8    25    26   ar
     9    26    27    1
    10    26    28   ar
    11     4     5    1
    12     5     6    1
    13     6     7    1
    14     7     8    1
    15     8     9   ar
    16     9    10   ar
    17    10    16    1
    18    16    17   ar
    19    17    18   ar
    20    18    19   ar
    21    19    20   ar
    22    20    21   ar
    23    10    11   ar
    24    11    12   ar
    25    12    13    2
    26    12    14   ar
    27    14    15    1
    28     7     2    1
    29    14     8   ar
    30    28    22   ar
    31    21    16   ar
