@<TRIPOS>MOLECULE
*****
 25 28 0 0 0
SMALL
GASTEIGER

@<TRIPOS>ATOM
      1 C          61.5129   87.1801   10.7903 C.3     1  UNL1        0.1140
      2 C          62.2330   88.4555   11.1142 C.ar    1  UNL1        0.0273
      3 C          63.2212   88.8056   12.1870 C.ar    1  UNL1        0.1379
      4 F          63.6467   87.7675   13.1824 F       1  UNL1       -0.2044
      5 C          63.7838   90.1940   12.2642 C.ar    1  UNL1        0.0294
      6 C          63.3583   91.2321   11.2687 C.ar    1  UNL1        0.0023
      7 C          62.3701   90.8820   10.1959 C.ar    1  UNL1        0.0014
      8 C          61.8074   89.4937   10.1186 C.ar    1  UNL1        0.0173
      9 C          60.8243   88.8600    9.1795 C.ar    1  UNL1        0.0804
     10 C          59.9538   89.1100    7.9838 C.ar    1  UNL1        0.1178
     11 N          59.2337   87.8346    7.6600 N.ar    1  UNL1       -0.2223
     12 C          59.6592   86.7963    8.6555 C.ar    1  UNL1        0.1788
     13 N          60.6423   87.4301    9.5946 N.ar    1  UNL1       -0.3068
     14 C          61.6409   85.8826   11.5319 C.3     1  UNL1        0.0565
     15 C          62.5459   84.8064   11.0098 C.3     1  UNL1        0.1127
     16 O          63.1339   84.9227    9.6346 O.3     1  UNL1       -0.3844
     17 H          63.6908   84.1491    9.4547 H       1  UNL1        0.2103
     18 O          63.8144   80.0364   14.4213 O.3     1  UNL1       -0.3845
     19 C          63.4973   81.2289   13.5684 C.3     1  UNL1        0.1105
     20 C          63.0587   81.0388   12.1466 C.3     1  UNL1        0.0293
     21 C          62.7416   82.2313   11.2937 C.3     1  UNL1        0.0049
     22 C          62.8630   83.6139   11.8626 C.3     1  UNL1        0.0272
     23 C          63.3016   83.8040   13.2845 C.3     1  UNL1        0.0049
     24 C          63.6188   82.6115   14.1374 C.3     1  UNL1        0.0293
     25 H          63.6857   79.2258   13.9044 H       1  UNL1        0.2103
@<TRIPOS>BOND
     1    18    19    1
     2    19    20    1
     3    20    21    1
     4    21    22    1
     5    22    15    1
     6    15    16    1
     7    15    14    1
     8    14     1    1
     9     1     2    1
    10     2     3   ar
    11     3     4    1
    12     3     5   ar
    13     5     6   ar
    14     6     7   ar
    15     7     8   ar
    16     8     9    1
    17     9    10   ar
    18    10    11   ar
    19    11    12   ar
    20    12    13   ar
    21    22    23    1
    22    23    24    1
    23    24    19    1
    24    13     1    1
    25     8     2   ar
    26    13     9   ar
    27    18    25    1
    28    16    17    1
@<TRIPOS>MOLECULE
*****
 25 28 0 0 0
SMALL
GASTEIGER

@<TRIPOS>ATOM
      1 C          61.8304   88.7750   10.9851 C.3     1  UNL1        0.1140
      2 C          62.3309   87.4508   11.4813 C.ar    1  UNL1        0.0273
      3 C          63.2076   87.0796   12.6404 C.ar    1  UNL1        0.1379
      4 F          63.7461   88.1474   13.5456 F       1  UNL1       -0.2044
      5 C          63.5456   85.6403   12.8942 C.ar    1  UNL1        0.0294
      6 C          63.0070   84.5725   11.9889 C.ar    1  UNL1        0.0023
      7 C          62.1303   84.9438   10.8298 C.ar    1  UNL1        0.0014
      8 C          61.7923   86.3830   10.5759 C.ar    1  UNL1        0.0173
      9 C          60.9589   87.0471    9.5203 C.ar    1  UNL1        0.0804
     10 C          60.1110   86.7976    8.3084 C.ar    1  UNL1        0.1178
     11 N          59.6104   88.1217    7.8123 N.ar    1  UNL1       -0.2223
     12 C          60.1490   89.1896    8.7175 C.ar    1  UNL1        0.1788
     13 N          60.9824   88.5255    9.7732 N.ar    1  UNL1       -0.3068
     14 C          62.1259   90.1137   11.5940 C.3     1  UNL1        0.0565
     15 C          63.0939   91.0443   10.9257 C.3     1  UNL1        0.1127
     16 O          62.8517   91.4918    9.5145 O.3     1  UNL1       -0.3844
     17 H          63.5663   92.0859    9.2366 H       1  UNL1        0.2103
     18 O          67.9350   92.9774   13.8967 O.3     1  UNL1       -0.3845
     19 C          66.7248   92.4941   13.1539 C.3     1  UNL1        0.1105
     20 C          65.6784   91.6903   13.8673 C.3     1  UNL1        0.0293
     21 C          64.4681   91.2070   13.1245 C.3     1  UNL1        0.0049
     22 C          64.3042   91.5276   11.6684 C.3     1  UNL1        0.0272
     23 C          65.3506   92.3315   10.9550 C.3     1  UNL1        0.0049
     24 C          66.5609   92.8148   11.6977 C.3     1  UNL1        0.0293
     25 H          67.8853   92.6858   14.8205 H       1  UNL1        0.2103
@<TRIPOS>BOND
     1    18    19    1
     2    19    20    1
     3    20    21    1
     4    21    22    1
     5    22    15    1
     6    15    16    1
     7    15    14    1
     8    14     1    1
     9     1     2    1
    10     2     3   ar
    11     3     4    1
    12     3     5   ar
    13     5     6   ar
    14     6     7   ar
    15     7     8   ar
    16     8     9    1
    17     9    10   ar
    18    10    11   ar
    19    11    12   ar
    20    12    13   ar
    21    22    23    1
    22    23    24    1
    23    24    19    1
    24    13     1    1
    25     8     2   ar
    26    13     9   ar
    27    18    25    1
    28    16    17    1
@<TRIPOS>MOLECULE
*****
 25 28 0 0 0
SMALL
GASTEIGER

@<TRIPOS>ATOM
      1 C          61.6002   88.2931   11.0218 C.3     1  UNL1        0.1140
      2 C          60.8273   88.0125    9.7671 C.ar    1  UNL1        0.0273
      3 C          60.0027   88.8951    8.8777 C.ar    1  UNL1        0.1379
      4 F          59.8481   90.3515    9.2013 F       1  UNL1       -0.2044
      5 C          59.3327   88.3210    7.6645 C.ar    1  UNL1        0.0294
      6 C          59.4873   86.8646    7.3410 C.ar    1  UNL1        0.0023
      7 C          60.3119   85.9820    8.2304 C.ar    1  UNL1        0.0014
      8 C          60.9819   86.5560    9.4435 C.ar    1  UNL1        0.0173
      9 C          61.8504   85.9364   10.4981 C.ar    1  UNL1        0.0804
     10 C          62.4826   84.6534   10.9497 C.ar    1  UNL1        0.1178
     11 N          63.2555   84.9340   12.2043 N.ar    1  UNL1       -0.2223
     12 C          63.1009   86.3905   12.5279 C.ar    1  UNL1        0.1788
     13 N          62.2325   87.0101   11.4734 N.ar    1  UNL1       -0.3068
     14 C          61.7198   89.6233   11.7047 C.3     1  UNL1        0.0565
     15 C          62.7935   90.5853   11.2903 C.3     1  UNL1        0.1127
     16 O          62.7577   91.2068    9.9255 O.3     1  UNL1       -0.3844
     17 H          63.5185   91.7992    9.8200 H       1  UNL1        0.2103
     18 O          67.2314   91.9475   15.0915 O.3     1  UNL1       -0.3845
     19 C          66.1220   91.6069   14.1412 C.3     1  UNL1        0.1105
     20 C          65.1550   90.5111   14.4789 C.3     1  UNL1        0.0293
     21 C          64.0456   90.1705   13.5286 C.3     1  UNL1        0.0049
     22 C          63.9030   90.9258   12.2406 C.3     1  UNL1        0.0272
     23 C          64.8699   92.0217   11.9028 C.3     1  UNL1        0.0049
     24 C          65.9794   92.3623   12.8531 C.3     1  UNL1        0.0293
     25 H          67.1804   91.3693   15.8686 H       1  UNL1        0.2103
@<TRIPOS>BOND
     1    18    19    1
     2    19    20    1
     3    20    21    1
     4    21    22    1
     5    22    15    1
     6    15    16    1
     7    15    14    1
     8    14     1    1
     9     1     2    1
    10     2     3   ar
    11     3     4    1
    12     3     5   ar
    13     5     6   ar
    14     6     7   ar
    15     7     8   ar
    16     8     9    1
    17     9    10   ar
    18    10    11   ar
    19    11    12   ar
    20    12    13   ar
    21    22    23    1
    22    23    24    1
    23    24    19    1
    24    13     1    1
    25     8     2   ar
    26    13     9   ar
    27    18    25    1
    28    16    17    1
@<TRIPOS>MOLECULE
*****
 25 28 0 0 0
SMALL
GASTEIGER

@<TRIPOS>ATOM
      1 C          63.1826   86.7219   12.6041 C.3     1  UNL1        0.1140
      2 C          63.4555   88.1811   12.8194 C.ar    1  UNL1        0.0273
      3 C          64.2396   88.9113   13.8692 C.ar    1  UNL1        0.1379
      4 F          64.9249   88.1454   14.9617 F       1  UNL1       -0.2044
      5 C          64.3382   90.4075   13.8264 C.ar    1  UNL1        0.0294
      6 C          63.6528   91.1733   12.7339 C.ar    1  UNL1        0.0023
      7 C          62.8688   90.4431   11.6841 C.ar    1  UNL1        0.0014
      8 C          62.7701   88.9470   11.7268 C.ar    1  UNL1        0.0173
      9 C          62.0736   87.9612   10.8363 C.ar    1  UNL1        0.0804
     10 C          61.2196   87.8253    9.6107 C.ar    1  UNL1        0.1178
     11 N          60.9467   86.3662    9.3954 N.ar    1  UNL1       -0.2223
     12 C          61.6321   85.6002   10.4879 C.ar    1  UNL1        0.1788
     13 N          62.3286   86.5860   11.3784 N.ar    1  UNL1       -0.3068
     14 C          63.6770   85.5963   13.4635 C.3     1  UNL1        0.0565
     15 C          62.7188   84.5534   13.9578 C.3     1  UNL1        0.1127
     16 O          61.7691   84.8760   15.0733 O.3     1  UNL1       -0.3844
     17 H          61.2241   84.0978   15.2691 H       1  UNL1        0.2103
     18 O          62.6846   79.0920   11.4736 O.3     1  UNL1       -0.3845
     19 C          62.6932   80.4573   12.0947 C.3     1  UNL1        0.1105
     20 C          63.2823   81.6172   11.3480 C.3     1  UNL1        0.0293
     21 C          63.2908   82.9826   11.9690 C.3     1  UNL1        0.0049
     22 C          62.7103   83.1881   13.3368 C.3     1  UNL1        0.0272
     23 C          62.1211   82.0281   14.0835 C.3     1  UNL1        0.0049
     24 C          62.1126   80.6628   13.4625 C.3     1  UNL1        0.0293
     25 H          63.0945   79.1336   10.5955 H       1  UNL1        0.2103
@<TRIPOS>BOND
     1    18    19    1
     2    19    20    1
     3    20    21    1
     4    21    22    1
     5    22    15    1
     6    15    16    1
     7    15    14    1
     8    14     1    1
     9     1     2    1
    10     2     3   ar
    11     3     4    1
    12     3     5   ar
    13     5     6   ar
    14     6     7   ar
    15     7     8   ar
    16     8     9    1
    17     9    10   ar
    18    10    11   ar
    19    11    12   ar
    20    12    13   ar
    21    22    23    1
    22    23    24    1
    23    24    19    1
    24    13     1    1
    25     8     2   ar
    26    13     9   ar
    27    18    25    1
    28    16    17    1
@<TRIPOS>MOLECULE
*****
 25 28 0 0 0
SMALL
GASTEIGER

@<TRIPOS>ATOM
      1 C          63.1844   88.4726   12.1722 C.3     1  UNL1        0.1140
      2 C          63.4755   87.2812   13.0359 C.ar    1  UNL1        0.0273
      3 C          63.2485   85.8129   12.8302 C.ar    1  UNL1        0.1379
      4 F          62.6187   85.3220   11.5604 F       1  UNL1       -0.2044
      5 C          63.6513   84.8354   13.8943 C.ar    1  UNL1        0.0294
      6 C          64.2810   85.3263   15.1640 C.ar    1  UNL1        0.0023
      7 C          64.5081   86.7947   15.3698 C.ar    1  UNL1        0.0014
      8 C          64.1053   87.7722   14.3057 C.ar    1  UNL1        0.0173
      9 C          64.2034   89.2669   14.2268 C.ar    1  UNL1        0.0804
     10 C          64.6533   90.4940   14.9628 C.ar    1  UNL1        0.1178
     11 N          64.3622   91.6853   14.0990 N.ar    1  UNL1       -0.2223
     12 C          63.7324   91.1945   12.8292 C.ar    1  UNL1        0.1788
     13 N          63.6342   89.6998   12.9082 N.ar    1  UNL1       -0.3068
     14 C          62.5540   88.4421   10.8114 C.3     1  UNL1        0.0565
     15 C          61.3835   87.5421   10.5470 C.3     1  UNL1        0.1127
     16 O          60.2357   87.5015   11.5118 O.3     1  UNL1       -0.3844
     17 H          59.5682   86.8735   11.1940 H       1  UNL1        0.2103
     18 O          61.2928   84.1044    5.6303 O.3     1  UNL1       -0.3845
     19 C          61.3155   84.9639    6.8595 C.3     1  UNL1        0.1105
     20 C          62.5825   85.1106    7.6488 C.3     1  UNL1        0.0293
     21 C          62.6052   85.9700    8.8779 C.3     1  UNL1        0.0049
     22 C          61.3609   86.6827    9.3178 C.3     1  UNL1        0.0272
     23 C          60.0937   86.5360    8.5285 C.3     1  UNL1        0.0049
     24 C          60.0710   85.6766    7.2994 C.3     1  UNL1        0.0293
     25 H          62.1720   83.7199    5.4883 H       1  UNL1        0.2103
@<TRIPOS>BOND
     1    18    19    1
     2    19    20    1
     3    20    21    1
     4    21    22    1
     5    22    15    1
     6    15    16    1
     7    15    14    1
     8    14     1    1
     9     1     2    1
    10     2     3   ar
    11     3     4    1
    12     3     5   ar
    13     5     6   ar
    14     6     7   ar
    15     7     8   ar
    16     8     9    1
    17     9    10   ar
    18    10    11   ar
    19    11    12   ar
    20    12    13   ar
    21    22    23    1
    22    23    24    1
    23    24    19    1
    24    13     1    1
    25     8     2   ar
    26    13     9   ar
    27    18    25    1
    28    16    17    1
@<TRIPOS>MOLECULE
*****
 25 28 0 0 0
SMALL
GASTEIGER

@<TRIPOS>ATOM
      1 C          63.2494   88.4227   12.4332 C.3     1  UNL1        0.1140
      2 C          62.4401   87.9220   11.2736 C.ar    1  UNL1        0.0273
      3 C          61.7759   88.6328   10.1319 C.ar    1  UNL1        0.1379
      4 F          61.8687   90.1258   10.0221 F       1  UNL1       -0.2044
      5 C          61.0187   87.8504    9.1000 C.ar    1  UNL1        0.0294
      6 C          60.9259   86.3574    9.2100 C.ar    1  UNL1        0.0023
      7 C          61.5902   85.6466   10.3517 C.ar    1  UNL1        0.0014
      8 C          62.3474   86.4289   11.3835 C.ar    1  UNL1        0.0173
      9 C          63.0992   86.0068   12.6110 C.ar    1  UNL1        0.0804
     10 C          63.5064   84.8231   13.4374 C.ar    1  UNL1        0.1178
     11 N          64.3156   85.3238   14.5969 N.ar    1  UNL1       -0.2223
     12 C          64.4085   86.8169   14.4871 C.ar    1  UNL1        0.1788
     13 N          63.6566   87.2390   13.2597 N.ar    1  UNL1       -0.3068
     14 C          63.5912   89.8555   12.7165 C.3     1  UNL1        0.0565
     15 C          63.6993   90.3346   14.1338 C.3     1  UNL1        0.1127
     16 O          62.6589   89.9408   15.1401 O.3     1  UNL1       -0.3844
     17 H          62.8770   90.3318   16.0006 H       1  UNL1        0.2103
     18 O          68.2930   93.8266   15.7781 O.3     1  UNL1       -0.3845
     19 C          67.1446   92.9536   15.3670 C.3     1  UNL1        0.1105
     20 C          66.0509   92.6430   16.3454 C.3     1  UNL1        0.0293
     21 C          64.9025   91.7700   15.9343 C.3     1  UNL1        0.0049
     22 C          64.8477   91.2076   14.5449 C.3     1  UNL1        0.0272
     23 C          65.9414   91.5183   13.5664 C.3     1  UNL1        0.0049
     24 C          67.0899   92.3913   13.9774 C.3     1  UNL1        0.0293
     25 H          68.1749   94.1034   16.7002 H       1  UNL1        0.2103
@<TRIPOS>BOND
     1    18    19    1
     2    19    20    1
     3    20    21    1
     4    21    22    1
     5    22    15    1
     6    15    16    1
     7    15    14    1
     8    14     1    1
     9     1     2    1
    10     2     3   ar
    11     3     4    1
    12     3     5   ar
    13     5     6   ar
    14     6     7   ar
    15     7     8   ar
    16     8     9    1
    17     9    10   ar
    18    10    11   ar
    19    11    12   ar
    20    12    13   ar
    21    22    23    1
    22    23    24    1
    23    24    19    1
    24    13     1    1
    25     8     2   ar
    26    13     9   ar
    27    18    25    1
    28    16    17    1
@<TRIPOS>MOLECULE
*****
 25 28 0 0 0
SMALL
GASTEIGER

@<TRIPOS>ATOM
      1 C          61.7001   88.3585   11.2240 C.3     1  UNL1        0.1140
      2 C          60.9455   88.1025    9.9531 C.ar    1  UNL1        0.0273
      3 C          60.1267   89.0003    9.0738 C.ar    1  UNL1        0.1379
      4 F          59.9580   90.4477    9.4294 F       1  UNL1       -0.2044
      5 C          59.4765   88.4507    7.8387 C.ar    1  UNL1        0.0294
      6 C          59.6452   87.0033    7.4831 C.ar    1  UNL1        0.0023
      7 C          60.4641   86.1054    8.3625 C.ar    1  UNL1        0.0014
      8 C          61.1143   86.6550    9.5975 C.ar    1  UNL1        0.0173
      9 C          61.9731   86.0165   10.6485 C.ar    1  UNL1        0.0804
     10 C          62.6081   84.7273   11.0783 C.ar    1  UNL1        0.1178
     11 N          63.3626   84.9833   12.3492 N.ar    1  UNL1       -0.2223
     12 C          63.1939   86.4308   12.7049 C.ar    1  UNL1        0.1788
     13 N          62.3351   87.0693   11.6538 N.ar    1  UNL1       -0.3068
     14 C          61.8018   89.6729   11.9395 C.3     1  UNL1        0.0565
     15 C          62.9680   89.9474   12.8419 C.3     1  UNL1        0.1127
     16 O          63.1018   89.2085   14.1405 O.3     1  UNL1       -0.3844
     17 H          63.9046   89.5026   14.5986 H       1  UNL1        0.2103
     18 O          67.0983   94.0009   11.2576 O.3     1  UNL1       -0.3845
     19 C          66.0657   92.9875   11.6536 C.3     1  UNL1        0.1105
     20 C          66.0467   92.4430   13.0511 C.3     1  UNL1        0.0293
     21 C          65.0142   91.4296   13.4472 C.3     1  UNL1        0.0049
     22 C          64.0006   90.9608   12.4458 C.3     1  UNL1        0.0272
     23 C          64.0196   91.5054   11.0482 C.3     1  UNL1        0.0049
     24 C          65.0521   92.5187   10.6521 C.3     1  UNL1        0.0293
     25 H          67.6710   94.1927   12.0166 H       1  UNL1        0.2103
@<TRIPOS>BOND
     1    18    19    1
     2    19    20    1
     3    20    21    1
     4    21    22    1
     5    22    15    1
     6    15    16    1
     7    15    14    1
     8    14     1    1
     9     1     2    1
    10     2     3   ar
    11     3     4    1
    12     3     5   ar
    13     5     6   ar
    14     6     7   ar
    15     7     8   ar
    16     8     9    1
    17     9    10   ar
    18    10    11   ar
    19    11    12   ar
    20    12    13   ar
    21    22    23    1
    22    23    24    1
    23    24    19    1
    24    13     1    1
    25     8     2   ar
    26    13     9   ar
    27    18    25    1
    28    16    17    1
@<TRIPOS>MOLECULE
*****
 25 28 0 0 0
SMALL
GASTEIGER

@<TRIPOS>ATOM
      1 C          63.7506   88.6033   13.2669 C.3     1  UNL1        0.1140
      2 C          63.4531   87.1570   13.0023 C.ar    1  UNL1        0.0273
      3 C          63.7814   85.9087   13.7664 C.ar    1  UNL1        0.1379
      4 F          64.5481   85.9965   15.0526 F       1  UNL1       -0.2044
      5 C          63.3430   84.5726   13.2442 C.ar    1  UNL1        0.0294
      6 C          62.5763   84.4850   11.9580 C.ar    1  UNL1        0.0023
      7 C          62.2480   85.7333   11.1939 C.ar    1  UNL1        0.0014
      8 C          62.6864   87.0694   11.7160 C.ar    1  UNL1        0.0173
      9 C          62.5100   88.4613   11.1856 C.ar    1  UNL1        0.0804
     10 C          61.9271   89.2674   10.0629 C.ar    1  UNL1        0.1178
     11 N          62.2245   90.7136   10.3276 N.ar    1  UNL1       -0.2223
     12 C          62.9912   90.8013   11.6138 C.ar    1  UNL1        0.1788
     13 N          63.1677   89.4094   12.1442 N.ar    1  UNL1       -0.3068
     14 C          64.4994   89.1479   14.4470 C.3     1  UNL1        0.0565
     15 C          64.4485   90.6149   14.7557 C.3     1  UNL1        0.1127
     16 O          63.1255   91.2963   14.9437 O.3     1  UNL1       -0.3844
     17 H          63.2702   92.2361   15.1353 H       1  UNL1        0.2103
     18 O          69.5369   93.7573   15.2384 O.3     1  UNL1       -0.3845
     19 C          68.2648   92.9717   15.1177 C.3     1  UNL1        0.1105
     20 C          67.2321   93.0453   16.2031 C.3     1  UNL1        0.0293
     21 C          65.9600   92.2596   16.0824 C.3     1  UNL1        0.0049
     22 C          65.7206   91.4005   14.8764 C.3     1  UNL1        0.0272
     23 C          66.7534   91.3269   13.7910 C.3     1  UNL1        0.0049
     24 C          68.0255   92.1125   13.9116 C.3     1  UNL1        0.0293
     25 H          69.5318   94.2550   16.0710 H       1  UNL1        0.2103
@<TRIPOS>BOND
     1    18    19    1
     2    19    20    1
     3    20    21    1
     4    21    22    1
     5    22    15    1
     6    15    16    1
     7    15    14    1
     8    14     1    1
     9     1     2    1
    10     2     3   ar
    11     3     4    1
    12     3     5   ar
    13     5     6   ar
    14     6     7   ar
    15     7     8   ar
    16     8     9    1
    17     9    10   ar
    18    10    11   ar
    19    11    12   ar
    20    12    13   ar
    21    22    23    1
    22    23    24    1
    23    24    19    1
    24    13     1    1
    25     8     2   ar
    26    13     9   ar
    27    18    25    1
    28    16    17    1
@<TRIPOS>MOLECULE
*****
 25 28 0 0 0
SMALL
GASTEIGER

@<TRIPOS>ATOM
      1 C          63.0531   84.8755   12.9460 C.3     1  UNL1        0.1140
      2 C          62.8005   85.5631   11.6369 C.ar    1  UNL1        0.0273
      3 C          62.4491   86.9818   11.2997 C.ar    1  UNL1        0.1379
      4 F          62.2938   87.9962   12.3936 F       1  UNL1       -0.2044
      5 C          62.2531   87.3860    9.8685 C.ar    1  UNL1        0.0294
      6 C          62.4085   86.3714    8.7747 C.ar    1  UNL1        0.0023
      7 C          62.7598   84.9527    9.1119 C.ar    1  UNL1        0.0014
      8 C          62.9559   84.5485   10.5430 C.ar    1  UNL1        0.0173
      9 C          63.3044   83.2340   11.1760 C.ar    1  UNL1        0.0804
     10 C          63.6159   81.7946   10.8911 C.ar    1  UNL1        0.1178
     11 N          63.8684   81.1072   12.2002 N.ar    1  UNL1       -0.2223
     12 C          63.7131   82.1217   13.2941 C.ar    1  UNL1        0.1788
     13 N          63.3645   83.4361   12.6611 N.ar    1  UNL1       -0.3068
     14 C          63.0030   85.5152   14.3019 C.3     1  UNL1        0.0565
     15 C          64.1825   86.2903   14.8095 C.3     1  UNL1        0.1127
     16 O          65.5269   85.6321   14.9070 O.3     1  UNL1       -0.3844
     17 H          66.1739   86.2677   15.2511 H       1  UNL1        0.2103
     18 O          63.5236   92.0240   16.4499 O.3     1  UNL1       -0.3845
     19 C          63.6883   90.5906   16.0398 C.3     1  UNL1        0.1105
     20 C          64.4068   90.2524   14.7672 C.3     1  UNL1        0.0293
     21 C          64.5715   88.8190   14.3571 C.3     1  UNL1        0.0049
     22 C          64.0178   87.7237   15.2196 C.3     1  UNL1        0.0272
     23 C          63.2993   88.0619   16.4922 C.3     1  UNL1        0.0049
     24 C          63.1346   89.4953   16.9023 C.3     1  UNL1        0.0293
     25 H          63.9359   92.5994   15.7868 H       1  UNL1        0.2103
@<TRIPOS>BOND
     1    18    19    1
     2    19    20    1
     3    20    21    1
     4    21    22    1
     5    22    15    1
     6    15    16    1
     7    15    14    1
     8    14     1    1
     9     1     2    1
    10     2     3   ar
    11     3     4    1
    12     3     5   ar
    13     5     6   ar
    14     6     7   ar
    15     7     8   ar
    16     8     9    1
    17     9    10   ar
    18    10    11   ar
    19    11    12   ar
    20    12    13   ar
    21    22    23    1
    22    23    24    1
    23    24    19    1
    24    13     1    1
    25     8     2   ar
    26    13     9   ar
    27    18    25    1
    28    16    17    1
