@<TRIPOS>MOLECULE
*****
 40 43 0 0 0
SMALL
GASTEIGER

@<TRIPOS>ATOM
      1 C          62.0610   87.8651   10.9439 C.ar    1  UNL1        0.0759
      2 C          62.6736   86.6724   11.6165 C.ar    1  UNL1        0.0848
      3 N          63.5403   86.8567   12.8268 N.ar    1  UNL1       -0.2754
      4 C          63.7945   88.2338   13.3646 C.ar    1  UNL1        0.3341
      5 O          64.6611   88.4182   14.5748 O.2     1  UNL1       -0.2462
      6 N          63.1819   89.4265   12.6920 N.ar    1  UNL1       -0.2470
      7 C          62.3152   89.2421   11.4817 C.ar    1  UNL1        0.2657
      8 O          61.7026   90.4348   10.8091 O.2     1  UNL1       -0.2668
      9 C          60.3923   86.2173    7.7423 C.ar    1  UNL1        0.1660
     10 C          59.4610   87.3119    7.3130 C.ar    1  UNL1        0.0392
     11 C          59.3963   88.5910    8.0940 C.ar    1  UNL1        0.0033
     12 C          60.2630   88.7753    9.3043 C.ar    1  UNL1        0.0026
     13 C          61.1943   87.6807    9.7336 C.ar    1  UNL1        0.0366
     14 C          61.2590   86.4017    8.9526 C.ar    1  UNL1        0.1739
     15 F          62.1904   85.3070    9.3820 F       1  UNL1       -0.2010
     16 C          61.7177   84.5624    6.2408 C.3     1  UNL1        0.2526
     17 O          60.4570   84.9383    6.9613 O.3     1  UNL1       -0.4692
     18 C          64.1529   85.6641   13.4993 C.3     1  UNL1        0.1408
     19 C          63.4428   84.3430   13.4761 C.ar    1  UNL1        0.0451
     20 C          63.5261   83.4680   12.2606 C.ar    1  UNL1        0.1392
     21 F          64.3195   83.9141   11.0683 F       1  UNL1       -0.2044
     22 C          62.8160   82.1470   12.2374 C.ar    1  UNL1        0.0295
     23 C          62.0226   81.7009   13.4297 C.ar    1  UNL1        0.0036
     24 C          61.9393   82.5759   14.6451 C.ar    1  UNL1        0.0182
     25 C          62.6494   83.8970   14.6683 C.ar    1  UNL1        0.1057
     26 S          62.5660   84.7720   15.8839 S.O2    1  UNL1        0.0103
     27 C          62.4828   85.6469   17.0994 C.3     1  UNL1        0.1816
     28 O          64.0239   84.5404   16.1504 O.2     1  UNL1       -0.1686
     29 O          61.1082   85.0035   15.6174 O.2     1  UNL1       -0.1686
     30 C          63.4360   90.8035   13.2297 C.3     1  UNL1        0.1334
     31 C          64.6681   91.5537   12.8185 C.3     1  UNL1        0.0968
     32 N          64.8460   91.9787   11.3910 N.3     1  UNL1       -0.3172
     33 H          65.7326   92.4731   11.2914 H       1  UNL1        0.1192
     34 H          64.0802   92.5966   11.1223 H       1  UNL1        0.1192
     35 C          65.7224   91.8788   13.8348 C.ar    1  UNL1       -0.0063
     36 C          65.3356   92.1341   15.2614 C.ar    1  UNL1       -0.0029
     37 C          66.3899   92.4592   16.2776 C.ar    1  UNL1       -0.0003
     38 C          67.8309   92.5291   15.8673 C.ar    1  UNL1       -0.0000
     39 C          68.2178   92.2738   14.4407 C.ar    1  UNL1       -0.0003
     40 C          67.1635   91.9487   13.4244 C.ar    1  UNL1       -0.0029
@<TRIPOS>BOND
     1    16    17    1
     2    17     9    1
     3     9    10   ar
     4    10    11   ar
     5    11    12   ar
     6    12    13   ar
     7    13     1    1
     8     1     2   ar
     9     2     3   ar
    10     3    18    1
    11    18    19    1
    12    19    20   ar
    13    20    21    1
    14    20    22   ar
    15    22    23   ar
    16    23    24   ar
    17    24    25   ar
    18    25    26    1
    19    26    27    1
    20    26    28    2
    21    26    29    2
    22     3     4   ar
    23     4     5    2
    24     4     6   ar
    25     6    30    1
    26    30    31    1
    27    31    32    1
    28    31    35    1
    29    35    36   ar
    30    36    37   ar
    31    37    38   ar
    32    38    39   ar
    33    39    40   ar
    34     6     7   ar
    35     7     8    2
    36    13    14   ar
    37    14    15    1
    38    14     9   ar
    39     7     1   ar
    40    25    19   ar
    41    40    35   ar
    42    32    33    1
    43    32    34    1
@<TRIPOS>MOLECULE
*****
 40 43 0 0 0
SMALL
GASTEIGER

@<TRIPOS>ATOM
      1 C          63.0272   85.0020   12.7271 C.ar    1  UNL1        0.0759
      2 C          62.6565   85.7339   11.4714 C.ar    1  UNL1        0.0848
      3 N          62.8392   87.2204   11.3880 N.ar    1  UNL1       -0.2754
      4 C          63.3926   87.9750   12.5603 C.ar    1  UNL1        0.3341
      5 O          63.5753   89.4614   12.4769 O.2     1  UNL1       -0.2462
      6 N          63.7633   87.2430   13.8161 N.ar    1  UNL1       -0.2470
      7 C          63.5806   85.7565   13.8994 C.ar    1  UNL1        0.2657
      8 O          63.9513   85.0245   15.1552 O.2     1  UNL1       -0.2668
      9 C          62.9278   81.1720   11.6918 C.ar    1  UNL1        0.1660
     10 C          62.4792   80.5425   12.9772 C.ar    1  UNL1        0.0392
     11 C          62.2132   81.3994   14.1793 C.ar    1  UNL1        0.0033
     12 C          62.3959   82.8859   14.0959 C.ar    1  UNL1        0.0026
     13 C          62.8445   83.5154   12.8105 C.ar    1  UNL1        0.0366
     14 C          63.1104   82.6585   11.6084 C.ar    1  UNL1        0.1739
     15 F          63.5591   83.2881   10.3229 F       1  UNL1       -0.2010
     16 C          62.8058   78.8662   10.5009 C.3     1  UNL1        0.2526
     17 O          63.1937   80.3151   10.4897 O.3     1  UNL1       -0.4692
     18 C          62.4685   87.9523   10.1323 C.3     1  UNL1        0.1408
     19 C          61.2953   87.4959    9.3166 C.ar    1  UNL1        0.0451
     20 C          61.4553   86.3721    8.3361 C.ar    1  UNL1        0.1392
     21 F          62.7885   85.7048    8.1711 F       1  UNL1       -0.2044
     22 C          60.2821   85.9156    7.5205 C.ar    1  UNL1        0.0295
     23 C          58.9489   86.5829    7.6854 C.ar    1  UNL1        0.0036
     24 C          58.7889   87.7067    8.6659 C.ar    1  UNL1        0.0182
     25 C          59.9621   88.1631    9.4816 C.ar    1  UNL1        0.1057
     26 S          59.8020   89.2870   10.4622 S.O2    1  UNL1        0.0103
     27 C          59.6419   90.4107   11.4427 C.3     1  UNL1        0.1816
     28 O          59.5727   88.2939   11.5627 O.2     1  UNL1       -0.1686
     29 O          60.0312   90.2800    9.3616 O.2     1  UNL1       -0.1686
     30 C          64.3167   87.9975   14.9884 C.3     1  UNL1        0.1334
     31 C          63.7981   89.3674   15.3111 C.3     1  UNL1        0.0968
     32 N          62.3314   89.5784   15.5446 N.3     1  UNL1       -0.3172
     33 H          62.1578   90.5623   15.7500 H       1  UNL1        0.1192
     34 H          62.0270   89.0075   16.3332 H       1  UNL1        0.1192
     35 C          64.7460   90.5265   15.4005 C.ar    1  UNL1       -0.0063
     36 C          65.9307   90.5989   14.4834 C.ar    1  UNL1       -0.0029
     37 C          66.8786   91.7580   14.5727 C.ar    1  UNL1       -0.0003
     38 C          66.6419   92.8447   15.5792 C.ar    1  UNL1       -0.0000
     39 C          65.4571   92.7723   16.4964 C.ar    1  UNL1       -0.0003
     40 C          64.5092   91.6132   16.4071 C.ar    1  UNL1       -0.0029
@<TRIPOS>BOND
     1    16    17    1
     2    17     9    1
     3     9    10   ar
     4    10    11   ar
     5    11    12   ar
     6    12    13   ar
     7    13     1    1
     8     1     2   ar
     9     2     3   ar
    10     3    18    1
    11    18    19    1
    12    19    20   ar
    13    20    21    1
    14    20    22   ar
    15    22    23   ar
    16    23    24   ar
    17    24    25   ar
    18    25    26    1
    19    26    27    1
    20    26    28    2
    21    26    29    2
    22     3     4   ar
    23     4     5    2
    24     4     6   ar
    25     6    30    1
    26    30    31    1
    27    31    32    1
    28    31    35    1
    29    35    36   ar
    30    36    37   ar
    31    37    38   ar
    32    38    39   ar
    33    39    40   ar
    34     6     7   ar
    35     7     8    2
    36    13    14   ar
    37    14    15    1
    38    14     9   ar
    39     7     1   ar
    40    25    19   ar
    41    40    35   ar
    42    32    33    1
    43    32    34    1
@<TRIPOS>MOLECULE
*****
 40 43 0 0 0
SMALL
GASTEIGER

@<TRIPOS>ATOM
      1 C          62.1823   87.0604   10.8972 C.ar    1  UNL1        0.0759
      2 C          62.2556   88.5144   11.2585 C.ar    1  UNL1        0.0848
      3 N          62.9360   88.9389   12.5262 N.ar    1  UNL1       -0.2754
      4 C          63.5430   87.9093   13.4326 C.ar    1  UNL1        0.3341
      5 O          64.2233   88.3337   14.7003 O.2     1  UNL1       -0.2462
      6 N          63.4696   86.4553   13.0713 N.ar    1  UNL1       -0.2470
      7 C          62.7892   86.0309   11.8036 C.ar    1  UNL1        0.2657
      8 O          62.7158   84.5768   11.4423 O.2     1  UNL1       -0.2668
      9 C          61.5664   85.3941    7.3484 C.ar    1  UNL1        0.1660
     10 C          60.1413   85.7871    7.0942 C.ar    1  UNL1        0.0392
     11 C          59.3965   86.6045    8.1077 C.ar    1  UNL1        0.0033
     12 C          60.0768   87.0290    9.3753 C.ar    1  UNL1        0.0026
     13 C          61.5019   86.6360    9.6295 C.ar    1  UNL1        0.0366
     14 C          62.2467   85.8185    8.6161 C.ar    1  UNL1        0.1739
     15 F          63.6718   85.4255    8.8704 F       1  UNL1       -0.2010
     16 C          61.6203   84.1224    5.0835 C.3     1  UNL1        0.2526
     17 O          62.3112   84.5766    6.3350 O.3     1  UNL1       -0.4692
     18 C          63.0093   90.3928   12.8875 C.3     1  UNL1        0.1408
     19 C          64.1111   91.2481   12.3355 C.ar    1  UNL1        0.0451
     20 C          64.1841   91.5184   10.8619 C.ar    1  UNL1        0.1392
     21 F          63.1553   90.9334    9.9402 F       1  UNL1       -0.2044
     22 C          65.2858   92.3737   10.3099 C.ar    1  UNL1        0.0295
     23 C          66.3145   92.9587   11.2316 C.ar    1  UNL1        0.0036
     24 C          66.2415   92.6884   12.7052 C.ar    1  UNL1        0.0182
     25 C          65.1398   91.8331   13.2571 C.ar    1  UNL1        0.1057
     26 S          65.0668   91.5629   14.7308 S.O2    1  UNL1        0.0103
     27 C          64.9939   91.2926   16.2044 C.3     1  UNL1        0.1816
     28 O          66.5476   91.3254   14.7605 O.2     1  UNL1       -0.1686
     29 O          63.5861   91.8003   14.7011 O.2     1  UNL1       -0.1686
     30 C          64.0765   85.4257   13.9777 C.3     1  UNL1        0.1334
     31 C          63.1922   84.5283   14.7917 C.3     1  UNL1        0.0968
     32 N          62.5594   85.0410   16.0514 N.3     1  UNL1       -0.3172
     33 H          61.9955   84.3031   16.4733 H       1  UNL1        0.1192
     34 H          61.9646   85.8401   15.8323 H       1  UNL1        0.1192
     35 C          62.9407   83.1183   14.3462 C.ar    1  UNL1       -0.0063
     36 C          64.0277   82.3423   13.6633 C.ar    1  UNL1       -0.0029
     37 C          63.7762   80.9323   13.2177 C.ar    1  UNL1       -0.0003
     38 C          62.4378   80.2982   13.4550 C.ar    1  UNL1       -0.0000
     39 C          61.3507   81.0741   14.1379 C.ar    1  UNL1       -0.0003
     40 C          61.6022   82.4842   14.5835 C.ar    1  UNL1       -0.0029
@<TRIPOS>BOND
     1    16    17    1
     2    17     9    1
     3     9    10   ar
     4    10    11   ar
     5    11    12   ar
     6    12    13   ar
     7    13     1    1
     8     1     2   ar
     9     2     3   ar
    10     3    18    1
    11    18    19    1
    12    19    20   ar
    13    20    21    1
    14    20    22   ar
    15    22    23   ar
    16    23    24   ar
    17    24    25   ar
    18    25    26    1
    19    26    27    1
    20    26    28    2
    21    26    29    2
    22     3     4   ar
    23     4     5    2
    24     4     6   ar
    25     6    30    1
    26    30    31    1
    27    31    32    1
    28    31    35    1
    29    35    36   ar
    30    36    37   ar
    31    37    38   ar
    32    38    39   ar
    33    39    40   ar
    34     6     7   ar
    35     7     8    2
    36    13    14   ar
    37    14    15    1
    38    14     9   ar
    39     7     1   ar
    40    25    19   ar
    41    40    35   ar
    42    32    33    1
    43    32    34    1
@<TRIPOS>MOLECULE
*****
 40 43 0 0 0
SMALL
GASTEIGER

@<TRIPOS>ATOM
      1 C          62.6018   87.6884   11.3184 C.ar    1  UNL1        0.0759
      2 C          62.8224   89.1407   11.6220 C.ar    1  UNL1        0.0848
      3 N          63.5268   89.5448   12.8832 N.ar    1  UNL1       -0.2754
      4 C          64.0108   88.4965   13.8407 C.ar    1  UNL1        0.3341
      5 O          64.7152   88.9005   15.1019 O.2     1  UNL1       -0.2462
      6 N          63.7902   87.0441   13.5371 N.ar    1  UNL1       -0.2470
      7 C          63.0858   86.6401   12.2760 C.ar    1  UNL1        0.2657
      8 O          62.8652   85.1878   11.9724 O.2     1  UNL1       -0.2668
      9 C          60.0787   87.7266    8.2553 C.ar    1  UNL1        0.1660
     10 C          60.4884   86.4763    7.5350 C.ar    1  UNL1        0.0392
     11 C          61.6026   85.6300    8.0758 C.ar    1  UNL1        0.0033
     12 C          62.3071   86.0341    9.3369 C.ar    1  UNL1        0.0026
     13 C          61.8974   87.2843   10.0572 C.ar    1  UNL1        0.0366
     14 C          60.7832   88.1306    9.5165 C.ar    1  UNL1        0.1739
     15 F          60.3735   89.3809   10.2368 F       1  UNL1       -0.2010
     16 C          59.2334   89.5491    6.6080 C.3     1  UNL1        0.2526
     17 O          58.9645   88.5728    7.7146 O.3     1  UNL1       -0.4692
     18 C          63.7474   90.9970   13.1867 C.3     1  UNL1        0.1408
     19 C          64.7058   91.7995   12.3576 C.ar    1  UNL1        0.0451
     20 C          64.4486   91.9951   10.8928 C.ar    1  UNL1        0.1392
     21 F          63.2329   91.3883   10.2572 F       1  UNL1       -0.2044
     22 C          65.4070   92.7975   10.0637 C.ar    1  UNL1        0.0295
     23 C          66.6226   93.4043   10.6992 C.ar    1  UNL1        0.0036
     24 C          66.8798   93.2087   12.1640 C.ar    1  UNL1        0.0182
     25 C          65.9214   92.4063   12.9932 C.ar    1  UNL1        0.1057
     26 S          66.1786   92.2107   14.4580 S.O2    1  UNL1        0.0103
     27 C          66.4359   92.0150   15.9227 C.3     1  UNL1        0.1816
     28 O          66.7863   90.8694   14.1721 O.2     1  UNL1       -0.1686
     29 O          65.5710   93.5519   14.7439 O.2     1  UNL1       -0.1686
     30 C          64.2742   85.9959   14.4947 C.3     1  UNL1        0.1334
     31 C          63.2995   85.0388   15.1144 C.3     1  UNL1        0.0968
     32 N          62.4682   85.4689   16.2866 N.3     1  UNL1       -0.3172
     33 H          61.8660   84.6987   16.5771 H       1  UNL1        0.1192
     34 H          61.8933   86.2684   16.0206 H       1  UNL1        0.1192
     35 C          63.1562   83.6516   14.5619 C.ar    1  UNL1       -0.0063
     36 C          61.8945   82.8762   14.8001 C.ar    1  UNL1       -0.0029
     37 C          61.7511   81.4890   14.2476 C.ar    1  UNL1       -0.0003
     38 C          62.8694   80.8773   13.4571 C.ar    1  UNL1       -0.0000
     39 C          64.1312   81.6527   13.2189 C.ar    1  UNL1       -0.0003
     40 C          64.2746   83.0399   13.7713 C.ar    1  UNL1       -0.0029
@<TRIPOS>BOND
     1    16    17    1
     2    17     9    1
     3     9    10   ar
     4    10    11   ar
     5    11    12   ar
     6    12    13   ar
     7    13     1    1
     8     1     2   ar
     9     2     3   ar
    10     3    18    1
    11    18    19    1
    12    19    20   ar
    13    20    21    1
    14    20    22   ar
    15    22    23   ar
    16    23    24   ar
    17    24    25   ar
    18    25    26    1
    19    26    27    1
    20    26    28    2
    21    26    29    2
    22     3     4   ar
    23     4     5    2
    24     4     6   ar
    25     6    30    1
    26    30    31    1
    27    31    32    1
    28    31    35    1
    29    35    36   ar
    30    36    37   ar
    31    37    38   ar
    32    38    39   ar
    33    39    40   ar
    34     6     7   ar
    35     7     8    2
    36    13    14   ar
    37    14    15    1
    38    14     9   ar
    39     7     1   ar
    40    25    19   ar
    41    40    35   ar
    42    32    33    1
    43    32    34    1
@<TRIPOS>MOLECULE
*****
 40 43 0 0 0
SMALL
GASTEIGER

@<TRIPOS>ATOM
      1 C          63.7715   89.0714   14.0395 C.ar    1  UNL1        0.0759
      2 C          64.4861   90.3513   14.3574 C.ar    1  UNL1        0.0848
      3 N          64.6450   91.4041   13.3006 N.ar    1  UNL1       -0.2754
      4 C          64.0891   91.1768   11.9261 C.ar    1  UNL1        0.3341
      5 O          64.2479   92.2294   10.8694 O.2     1  UNL1       -0.2462
      6 N          63.3745   89.8968   11.6083 N.ar    1  UNL1       -0.2470
      7 C          63.2157   88.8442   12.6650 C.ar    1  UNL1        0.2657
      8 O          62.5010   87.5642   12.3471 O.2     1  UNL1       -0.2668
      9 C          63.8549   85.5493   15.8664 C.ar    1  UNL1        0.1660
     10 C          63.2951   85.9133   17.2095 C.ar    1  UNL1        0.0392
     11 C          62.8940   87.3300   17.4960 C.ar    1  UNL1        0.0033
     12 C          63.0528   88.3827   16.4393 C.ar    1  UNL1        0.0026
     13 C          63.6127   88.0187   15.0962 C.ar    1  UNL1        0.0366
     14 C          64.0137   86.6020   14.8098 C.ar    1  UNL1        0.1739
     15 F          64.5736   86.2380   13.4666 F       1  UNL1       -0.2010
     16 C          63.3834   83.2649   14.7222 C.3     1  UNL1        0.2526
     17 O          64.2560   84.1325   15.5799 O.3     1  UNL1       -0.4692
     18 C          65.3596   92.6840   13.6185 C.3     1  UNL1        0.1408
     19 C          66.6761   92.6495   14.3366 C.ar    1  UNL1        0.0451
     20 C          66.7150   92.7122   15.8348 C.ar    1  UNL1        0.1392
     21 F          65.4374   92.8094   16.6149 F       1  UNL1       -0.2044
     22 C          68.0314   92.6778   16.5530 C.ar    1  UNL1        0.0295
     23 C          69.3090   92.5807   15.7730 C.ar    1  UNL1        0.0036
     24 C          69.2701   92.5180   14.2748 C.ar    1  UNL1        0.0182
     25 C          67.9536   92.5524   13.5567 C.ar    1  UNL1        0.1057
     26 S          67.9147   92.4897   12.0584 S.O2    1  UNL1        0.0103
     27 C          67.8759   92.4270   10.5603 C.3     1  UNL1        0.1816
     28 O          67.0515   93.7160   12.0295 O.2     1  UNL1       -0.1686
     29 O          68.7780   91.2634   12.0873 O.2     1  UNL1       -0.1686
     30 C          62.8186   89.6695   10.2337 C.3     1  UNL1        0.1334
     31 C          61.3515   89.4168   10.0503 C.3     1  UNL1        0.0968
     32 N          60.3475   90.3233   10.6987 N.3     1  UNL1       -0.3172
     33 H          59.4054   90.0062   10.4699 H       1  UNL1        0.1192
     34 H          60.4782   91.2753   10.3567 H       1  UNL1        0.1192
     35 C          60.8883   88.2577    9.2185 C.ar    1  UNL1       -0.0063
     36 C          59.5782   88.3320    8.4919 C.ar    1  UNL1       -0.0029
     37 C          59.1150   87.1729    7.6602 C.ar    1  UNL1       -0.0003
     38 C          59.9620   85.9394    7.5550 C.ar    1  UNL1       -0.0000
     39 C          61.2722   85.8650    8.2817 C.ar    1  UNL1       -0.0003
     40 C          61.7353   87.0241    9.1135 C.ar    1  UNL1       -0.0029
@<TRIPOS>BOND
     1    16    17    1
     2    17     9    1
     3     9    10   ar
     4    10    11   ar
     5    11    12   ar
     6    12    13   ar
     7    13     1    1
     8     1     2   ar
     9     2     3   ar
    10     3    18    1
    11    18    19    1
    12    19    20   ar
    13    20    21    1
    14    20    22   ar
    15    22    23   ar
    16    23    24   ar
    17    24    25   ar
    18    25    26    1
    19    26    27    1
    20    26    28    2
    21    26    29    2
    22     3     4   ar
    23     4     5    2
    24     4     6   ar
    25     6    30    1
    26    30    31    1
    27    31    32    1
    28    31    35    1
    29    35    36   ar
    30    36    37   ar
    31    37    38   ar
    32    38    39   ar
    33    39    40   ar
    34     6     7   ar
    35     7     8    2
    36    13    14   ar
    37    14    15    1
    38    14     9   ar
    39     7     1   ar
    40    25    19   ar
    41    40    35   ar
    42    32    33    1
    43    32    34    1
@<TRIPOS>MOLECULE
*****
 40 43 0 0 0
SMALL
GASTEIGER

@<TRIPOS>ATOM
      1 C          62.4407   87.5939   10.9423 C.ar    1  UNL1        0.0759
      2 C          62.9931   86.5724   11.8917 C.ar    1  UNL1        0.0848
      3 N          63.6956   87.0129   13.1418 N.ar    1  UNL1       -0.2754
      4 C          63.8457   88.4747   13.4424 C.ar    1  UNL1        0.3341
      5 O          64.5481   88.9152   14.6924 O.2     1  UNL1       -0.2462
      6 N          63.2932   89.4962   12.4929 N.ar    1  UNL1       -0.2470
      7 C          62.5908   89.0558   11.2429 C.ar    1  UNL1        0.2657
      8 O          62.0383   90.0773   10.2934 O.2     1  UNL1       -0.2668
      9 C          59.7815   87.4083    8.0022 C.ar    1  UNL1        0.1660
     10 C          60.3332   86.2727    7.1923 C.ar    1  UNL1        0.0392
     11 C          61.5875   85.5776    7.6323 C.ar    1  UNL1        0.0033
     12 C          62.2900   86.0179    8.8823 C.ar    1  UNL1        0.0026
     13 C          61.7382   87.1535    9.6922 C.ar    1  UNL1        0.0366
     14 C          60.4840   87.8486    9.2522 C.ar    1  UNL1        0.1739
     15 F          59.9322   88.9842   10.0623 F       1  UNL1       -0.2010
     16 C          58.6105   89.3125    6.6784 C.3     1  UNL1        0.2526
     17 O          58.5272   88.1034    7.5622 O.3     1  UNL1       -0.4692
     18 C          64.2480   85.9914   14.0912 C.3     1  UNL1        0.1408
     19 C          63.5972   84.6448   14.2061 C.ar    1  UNL1        0.0451
     20 C          63.8114   83.6146   13.1372 C.ar    1  UNL1        0.1392
     21 F          64.6766   83.9309   11.9532 F       1  UNL1       -0.2044
     22 C          63.1606   82.2681   13.2521 C.ar    1  UNL1        0.0295
     23 C          62.2955   81.9517   14.4359 C.ar    1  UNL1        0.0036
     24 C          62.0813   82.9819   15.5048 C.ar    1  UNL1        0.0182
     25 C          62.7321   84.3285   15.3899 C.ar    1  UNL1        0.1057
     26 S          62.5178   85.3588   16.4590 S.O2    1  UNL1        0.0103
     27 C          62.3036   86.3889   17.5280 C.3     1  UNL1        0.1816
     28 O          63.9872   85.3518   16.7602 O.2     1  UNL1       -0.1686
     29 O          61.0484   85.3657   16.1578 O.2     1  UNL1       -0.1686
     30 C          63.4433   90.9581   12.7935 C.3     1  UNL1        0.1334
     31 C          64.6442   91.7066   12.2962 C.3     1  UNL1        0.0968
     32 N          64.8142   91.9614   10.8277 N.3     1  UNL1       -0.3172
     33 H          65.6789   92.4790   10.6703 H       1  UNL1        0.1192
     34 H          64.0240   92.5068   10.4836 H       1  UNL1        0.1192
     35 C          65.6753   92.2005   13.2673 C.ar    1  UNL1       -0.0063
     36 C          66.2770   91.2574   14.2665 C.ar    1  UNL1       -0.0029
     37 C          67.3081   91.7512   15.2376 C.ar    1  UNL1       -0.0003
     38 C          67.7374   93.1881   15.2096 C.ar    1  UNL1       -0.0000
     39 C          67.1356   94.1313   14.2103 C.ar    1  UNL1       -0.0003
     40 C          66.1046   93.6375   13.2392 C.ar    1  UNL1       -0.0029
@<TRIPOS>BOND
     1    16    17    1
     2    17     9    1
     3     9    10   ar
     4    10    11   ar
     5    11    12   ar
     6    12    13   ar
     7    13     1    1
     8     1     2   ar
     9     2     3   ar
    10     3    18    1
    11    18    19    1
    12    19    20   ar
    13    20    21    1
    14    20    22   ar
    15    22    23   ar
    16    23    24   ar
    17    24    25   ar
    18    25    26    1
    19    26    27    1
    20    26    28    2
    21    26    29    2
    22     3     4   ar
    23     4     5    2
    24     4     6   ar
    25     6    30    1
    26    30    31    1
    27    31    32    1
    28    31    35    1
    29    35    36   ar
    30    36    37   ar
    31    37    38   ar
    32    38    39   ar
    33    39    40   ar
    34     6     7   ar
    35     7     8    2
    36    13    14   ar
    37    14    15    1
    38    14     9   ar
    39     7     1   ar
    40    25    19   ar
    41    40    35   ar
    42    32    33    1
    43    32    34    1
@<TRIPOS>MOLECULE
*****
 40 43 0 0 0
SMALL
GASTEIGER

@<TRIPOS>ATOM
      1 C          61.8861   87.0916   10.8028 C.ar    1  UNL1        0.0759
      2 C          62.5337   85.9102   11.4622 C.ar    1  UNL1        0.0848
      3 N          63.3901   86.1060   12.6781 N.ar    1  UNL1       -0.2754
      4 C          63.5989   87.4833   13.2345 C.ar    1  UNL1        0.3341
      5 O          64.4552   87.6791   14.4503 O.2     1  UNL1       -0.2462
      6 N          62.9512   88.6647   12.5750 N.ar    1  UNL1       -0.2470
      7 C          62.0949   88.4688   11.3592 C.ar    1  UNL1        0.2657
      8 O          61.4472   89.6503   10.6997 O.2     1  UNL1       -0.2668
      9 C          60.5649   85.6908    7.3326 C.ar    1  UNL1        0.1660
     10 C          59.3171   86.5041    7.1552 C.ar    1  UNL1        0.0392
     11 C          58.9256   87.5132    8.1937 C.ar    1  UNL1        0.0033
     12 C          59.7819   87.7091    9.4095 C.ar    1  UNL1        0.0026
     13 C          61.0297   86.8958    9.5869 C.ar    1  UNL1        0.0366
     14 C          61.4212   85.8866    8.5484 C.ar    1  UNL1        0.1739
     15 F          62.6691   85.0733    8.7259 F       1  UNL1       -0.2010
     16 C          62.3829   84.5873    5.8402 C.3     1  UNL1        0.2526
     17 O          60.9563   84.6817    6.2941 O.3     1  UNL1       -0.4692
     18 C          64.0378   84.9246   13.3375 C.3     1  UNL1        0.1408
     19 C          63.2333   83.6915   13.6244 C.ar    1  UNL1        0.0451
     20 C          62.4596   83.5819   14.9048 C.ar    1  UNL1        0.1392
     21 F          62.4904   84.7053   15.8983 F       1  UNL1       -0.2044
     22 C          61.6552   82.3488   15.1917 C.ar    1  UNL1        0.0295
     23 C          61.6244   81.2254   14.1983 C.ar    1  UNL1        0.0036
     24 C          62.3980   81.3350   12.9180 C.ar    1  UNL1        0.0182
     25 C          63.2025   82.5681   12.6310 C.ar    1  UNL1        0.1057
     26 S          63.9762   82.6777   11.3506 S.O2    1  UNL1        0.0103
     27 C          64.7499   82.7873   10.0702 C.3     1  UNL1        0.1816
     28 O          65.2358   82.3172   12.0809 O.2     1  UNL1       -0.1686
     29 O          62.7166   83.0382   10.6203 O.2     1  UNL1       -0.1686
     30 C          63.1600   90.0419   13.1314 C.3     1  UNL1        0.1334
     31 C          64.0608   91.0089   12.4220 C.3     1  UNL1        0.0968
     32 N          63.8776   91.2673   10.9557 N.3     1  UNL1       -0.3172
     33 H          64.5709   91.9460   10.6409 H       1  UNL1        0.1192
     34 H          62.9411   91.6359   10.7899 H       1  UNL1        0.1192
     35 C          65.1450   91.7175   13.1786 C.ar    1  UNL1       -0.0063
     36 C          65.7230   91.0987   14.4167 C.ar    1  UNL1       -0.0029
     37 C          66.8071   91.8073   15.1734 C.ar    1  UNL1       -0.0003
     38 C          67.3133   93.1346   14.6920 C.ar    1  UNL1       -0.0000
     39 C          66.7353   93.7535   13.4538 C.ar    1  UNL1       -0.0003
     40 C          65.6511   93.0449   12.6971 C.ar    1  UNL1       -0.0029
@<TRIPOS>BOND
     1    16    17    1
     2    17     9    1
     3     9    10   ar
     4    10    11   ar
     5    11    12   ar
     6    12    13   ar
     7    13     1    1
     8     1     2   ar
     9     2     3   ar
    10     3    18    1
    11    18    19    1
    12    19    20   ar
    13    20    21    1
    14    20    22   ar
    15    22    23   ar
    16    23    24   ar
    17    24    25   ar
    18    25    26    1
    19    26    27    1
    20    26    28    2
    21    26    29    2
    22     3     4   ar
    23     4     5    2
    24     4     6   ar
    25     6    30    1
    26    30    31    1
    27    31    32    1
    28    31    35    1
    29    35    36   ar
    30    36    37   ar
    31    37    38   ar
    32    38    39   ar
    33    39    40   ar
    34     6     7   ar
    35     7     8    2
    36    13    14   ar
    37    14    15    1
    38    14     9   ar
    39     7     1   ar
    40    25    19   ar
    41    40    35   ar
    42    32    33    1
    43    32    34    1
@<TRIPOS>MOLECULE
*****
 40 43 0 0 0
SMALL
GASTEIGER

@<TRIPOS>ATOM
      1 C          62.4236   86.1582   10.6048 C.ar    1  UNL1        0.0759
      2 C          62.5232   87.3048   11.5667 C.ar    1  UNL1        0.0848
      3 N          62.0263   88.6631   11.1686 N.ar    1  UNL1       -0.2754
      4 C          61.4298   88.8746    9.8086 C.ar    1  UNL1        0.3341
      5 O          60.9329   90.2327    9.4106 O.2     1  UNL1       -0.2462
      6 N          61.3302   87.7278    8.8467 N.ar    1  UNL1       -0.2470
      7 C          61.8271   86.3697    9.2448 C.ar    1  UNL1        0.2657
      8 O          61.7275   85.2230    8.2829 O.2     1  UNL1       -0.2668
      9 C          63.0920   82.8923   12.7582 C.ar    1  UNL1        0.1660
     10 C          63.9142   82.0837   11.7990 C.ar    1  UNL1        0.0392
     11 C          64.2395   82.6332   10.4417 C.ar    1  UNL1        0.0033
     12 C          63.7427   83.9913   10.0436 C.ar    1  UNL1        0.0026
     13 C          62.9205   84.8000   11.0028 C.ar    1  UNL1        0.0366
     14 C          62.5952   84.2505   12.3601 C.ar    1  UNL1        0.1739
     15 F          61.7730   85.0592   13.3193 F       1  UNL1       -0.2010
     16 C          61.6779   81.3228   14.2704 C.3     1  UNL1        0.2526
     17 O          62.7667   82.3428   14.1155 O.3     1  UNL1       -0.4692
     18 C          62.1258   89.8097   12.1305 C.3     1  UNL1        0.1408
     19 C          63.3819   90.6272   12.1956 C.ar    1  UNL1        0.0451
     20 C          63.8277   91.4137   10.9987 C.ar    1  UNL1        0.1392
     21 F          63.0175   91.3827    9.7366 F       1  UNL1       -0.2044
     22 C          65.0837   92.2311   11.0638 C.ar    1  UNL1        0.0295
     23 C          65.8939   92.2620   12.3258 C.ar    1  UNL1        0.0036
     24 C          65.4480   91.4755   13.5226 C.ar    1  UNL1        0.0182
     25 C          64.1920   90.6581   13.4575 C.ar    1  UNL1        0.1057
     26 S          63.7462   89.8716   14.6545 S.O2    1  UNL1        0.0103
     27 C          63.3004   89.0850   15.8514 C.3     1  UNL1        0.1816
     28 O          64.2917   88.6193   14.0348 O.2     1  UNL1       -0.1686
     29 O          63.2006   91.1238   15.2742 O.2     1  UNL1       -0.1686
     30 C          60.7337   87.9393    7.4868 C.3     1  UNL1        0.1334
     31 C          59.3343   88.4627    7.3548 C.3     1  UNL1        0.0968
     32 N          58.2246   87.8471    8.1547 N.3     1  UNL1       -0.3172
     33 H          57.3478   88.3229    7.9422 H       1  UNL1        0.1192
     34 H          58.4300   87.9410    9.1494 H       1  UNL1        0.1192
     35 C          59.0443   89.6018    6.4228 C.ar    1  UNL1       -0.0063
     36 C          57.6255   90.0027    6.1471 C.ar    1  UNL1       -0.0029
     37 C          57.3355   91.1417    5.2152 C.ar    1  UNL1       -0.0003
     38 C          58.4644   91.8799    4.5590 C.ar    1  UNL1       -0.0000
     39 C          59.8834   91.4790    4.8347 C.ar    1  UNL1       -0.0003
     40 C          60.1733   90.3400    5.7666 C.ar    1  UNL1       -0.0029
@<TRIPOS>BOND
     1    16    17    1
     2    17     9    1
     3     9    10   ar
     4    10    11   ar
     5    11    12   ar
     6    12    13   ar
     7    13     1    1
     8     1     2   ar
     9     2     3   ar
    10     3    18    1
    11    18    19    1
    12    19    20   ar
    13    20    21    1
    14    20    22   ar
    15    22    23   ar
    16    23    24   ar
    17    24    25   ar
    18    25    26    1
    19    26    27    1
    20    26    28    2
    21    26    29    2
    22     3     4   ar
    23     4     5    2
    24     4     6   ar
    25     6    30    1
    26    30    31    1
    27    31    32    1
    28    31    35    1
    29    35    36   ar
    30    36    37   ar
    31    37    38   ar
    32    38    39   ar
    33    39    40   ar
    34     6     7   ar
    35     7     8    2
    36    13    14   ar
    37    14    15    1
    38    14     9   ar
    39     7     1   ar
    40    25    19   ar
    41    40    35   ar
    42    32    33    1
    43    32    34    1
@<TRIPOS>MOLECULE
*****
 40 43 0 0 0
SMALL
GASTEIGER

@<TRIPOS>ATOM
      1 C          61.7961   87.7125   10.9220 C.ar    1  UNL1        0.0759
      2 C          62.5049   86.4474   11.3055 C.ar    1  UNL1        0.0848
      3 N          63.4223   86.4319   12.4922 N.ar    1  UNL1       -0.2754
      4 C          63.6307   87.6815   13.2954 C.ar    1  UNL1        0.3341
      5 O          64.5480   87.6661   14.4821 O.2     1  UNL1       -0.2462
      6 N          62.9218   88.9466   12.9118 N.ar    1  UNL1       -0.2470
      7 C          62.0045   88.9621   11.7251 C.ar    1  UNL1        0.2657
      8 O          61.2956   90.2272   11.3415 O.2     1  UNL1       -0.2668
      9 C          59.7780   89.0055    7.7588 C.ar    1  UNL1        0.1660
     10 C          59.0441   87.7590    7.3619 C.ar    1  UNL1        0.0392
     11 C          59.2274   86.4970    8.1516 C.ar    1  UNL1        0.0033
     12 C          60.1447   86.4815    9.3383 C.ar    1  UNL1        0.0026
     13 C          60.8787   87.7280    9.7352 C.ar    1  UNL1        0.0366
     14 C          60.6954   88.9900    8.9454 C.ar    1  UNL1        0.1739
     15 F          61.4294   90.2365    9.3424 F       1  UNL1       -0.2010
     16 C          59.9103   90.2872    5.5027 C.3     1  UNL1        0.2526
     17 O          59.5947   90.2675    6.9690 O.3     1  UNL1       -0.4692
     18 C          64.1311   85.1669   12.8758 C.3     1  UNL1        0.1408
     19 C          63.3649   83.8823   12.9880 C.ar    1  UNL1        0.0451
     20 C          63.2548   82.9687   11.8034 C.ar    1  UNL1        0.1392
     21 F          63.9109   83.3397   10.5066 F       1  UNL1       -0.2044
     22 C          62.4885   81.6841   11.9157 C.ar    1  UNL1        0.0295
     23 C          61.8324   81.3130   13.2125 C.ar    1  UNL1        0.0036
     24 C          61.9424   82.2266   14.3970 C.ar    1  UNL1        0.0182
     25 C          62.7087   83.5112   14.2848 C.ar    1  UNL1        0.1057
     26 S          62.8188   84.4248   15.4695 S.O2    1  UNL1        0.0103
     27 C          62.9288   85.3383   16.6540 C.3     1  UNL1        0.1816
     28 O          61.3985   84.8615   15.2646 O.2     1  UNL1       -0.1686
     29 O          64.2391   83.9881   15.6743 O.2     1  UNL1       -0.1686
     30 C          63.1303   90.1962   13.7149 C.3     1  UNL1        0.1334
     31 C          64.4948   90.8131   13.8017 C.3     1  UNL1        0.0968
     32 N          65.4292   90.4147   14.9056 N.3     1  UNL1       -0.3172
     33 H          66.3053   90.9285   14.8115 H       1  UNL1        0.1192
     34 H          65.6146   89.4132   14.8492 H       1  UNL1        0.1192
     35 C          64.9250   91.8283   12.7848 C.ar    1  UNL1       -0.0063
     36 C          64.3883   91.7624   11.3857 C.ar    1  UNL1       -0.0029
     37 C          64.8185   92.7777   10.3688 C.ar    1  UNL1       -0.0003
     38 C          65.7855   93.8589   10.7510 C.ar    1  UNL1       -0.0000
     39 C          66.3222   93.9248   12.1501 C.ar    1  UNL1       -0.0003
     40 C          65.8920   92.9096   13.1671 C.ar    1  UNL1       -0.0029
@<TRIPOS>BOND
     1    16    17    1
     2    17     9    1
     3     9    10   ar
     4    10    11   ar
     5    11    12   ar
     6    12    13   ar
     7    13     1    1
     8     1     2   ar
     9     2     3   ar
    10     3    18    1
    11    18    19    1
    12    19    20   ar
    13    20    21    1
    14    20    22   ar
    15    22    23   ar
    16    23    24   ar
    17    24    25   ar
    18    25    26    1
    19    26    27    1
    20    26    28    2
    21    26    29    2
    22     3     4   ar
    23     4     5    2
    24     4     6   ar
    25     6    30    1
    26    30    31    1
    27    31    32    1
    28    31    35    1
    29    35    36   ar
    30    36    37   ar
    31    37    38   ar
    32    38    39   ar
    33    39    40   ar
    34     6     7   ar
    35     7     8    2
    36    13    14   ar
    37    14    15    1
    38    14     9   ar
    39     7     1   ar
    40    25    19   ar
    41    40    35   ar
    42    32    33    1
    43    32    34    1
