@<TRIPOS>MOLECULE
*****
 36 39 0 0 0
SMALL
GASTEIGER

@<TRIPOS>ATOM
      1 C          64.0763   89.7157   12.4750 C.ar    1  UNL1       -0.0223
      2 C          64.3251   88.9064   13.7131 C.ar    1  UNL1       -0.0030
      3 C          63.7634   87.5203   13.8285 C.ar    1  UNL1        0.0143
      4 C          62.9530   86.9436   12.7058 C.ar    1  UNL1        0.0502
      5 C          62.7042   87.7530   11.4676 C.ar    1  UNL1        0.0089
      6 C          63.2659   89.1390   11.3522 C.ar    1  UNL1       -0.0034
      7 N          65.7614   93.8740   12.1288 N.3     1  UNL1       -0.2712
      8 C          65.9271   93.1013   13.4037 C.3     1  UNL1        0.0725
      9 C          65.3654   91.7152   13.5191 C.3     1  UNL1        0.0217
     10 C          64.6380   91.1018   12.3596 C.3     1  UNL1        0.0251
     11 C          64.4723   91.8745   11.0846 C.3     1  UNL1        0.0217
     12 C          65.0340   93.2605   10.9692 C.3     1  UNL1        0.0725
     13 C          66.3231   95.2600   12.0134 C.3     1  UNL1        0.0977
     14 C          65.8260   96.1838   10.9412 C.3     1  UNL1        0.1681
     15 C          67.1179   96.1722    8.2337 C.3     1  UNL1        0.1761
     16 S          66.4720   96.1780    9.5875 S.O2    1  UNL1       -0.0068
     17 O          65.2642   96.8531    9.0083 O.2     1  UNL1       -0.1729
     18 O          67.6798   95.5029   10.1666 O.2     1  UNL1       -0.1729
     19 C          61.8938   87.1763   10.3448 C.2     1  UNL1       -0.0253
     20 C          62.5320   86.2374    9.3644 C.2     1  UNL1       -0.0303
     21 C          61.7216   85.6607    8.2417 C.3     1  UNL1        0.0257
     22 C          60.2729   86.0229    8.0992 C.3     1  UNL1        0.0050
     23 C          59.6347   86.9618    9.0796 C.3     1  UNL1        0.0050
     24 C          60.4452   87.5385   10.2024 C.3     1  UNL1        0.0261
     25 N          62.3913   85.5575   12.8212 N.am    1  UNL1       -0.2779
     26 C          63.2847   84.4159   13.2066 C.2     1  UNL1        0.2837
     27 O          64.7398   84.6604   13.4766 O.2     1  UNL1       -0.2665
     28 H          61.4362   85.3971   12.6439 H       1  UNL1        0.1553
     29 C          62.7230   83.0299   13.3220 C.ar    1  UNL1        0.1959
     30 N          61.3845   82.6656   13.8927 N.ar    1  UNL1       -0.2123
     31 C          61.2354   81.1753   13.8104 C.ar    1  UNL1        0.1678
     32 C          62.4818   80.6185   13.1887 C.ar    1  UNL1        0.1036
     33 N          63.4012   81.7646   12.8868 N.ar    1  UNL1       -0.3319
     34 H          64.2931   81.6982   12.4753 H       1  UNL1        0.1676
     35 C          60.0485   80.3812   14.2691 C.1     1  UNL1        0.1214
     36 N          58.8615   79.5871   14.7278 N.1     1  UNL1       -0.1892
@<TRIPOS>BOND
     1    15    16    1
     2    16    17    2
     3    16    18    2
     4    16    14    1
     5    14    13    1
     6    13     7    1
     7     7     8    1
     8     8     9    1
     9     9    10    1
    10    10     1    1
    11     1     2   ar
    12     2     3   ar
    13     3     4   ar
    14     4    25    1
    15    25    26   am
    16    26    27    2
    17    26    29    1
    18    29    30   ar
    19    30    31   ar
    20    31    35    1
    21    35    36    3
    22    31    32   ar
    23    32    33   ar
    24     4     5   ar
    25     5    19    1
    26    19    20    2
    27    20    21    1
    28    21    22    1
    29    22    23    1
    30    23    24    1
    31     5     6   ar
    32    10    11    1
    33    11    12    1
    34    12     7    1
    35     6     1   ar
    36    33    29   ar
    37    24    19    1
    38    25    28    1
    39    33    34    1
@<TRIPOS>MOLECULE
*****
 36 39 0 0 0
SMALL
GASTEIGER

@<TRIPOS>ATOM
      1 C          60.0012   89.2695    7.4463 C.ar    1  UNL1       -0.0223
      2 C          59.3706   87.9109    7.5260 C.ar    1  UNL1       -0.0030
      3 C          59.6583   87.0179    8.6964 C.ar    1  UNL1        0.0143
      4 C          60.5768   87.4836    9.7871 C.ar    1  UNL1        0.0502
      5 C          61.2074   88.8422    9.7074 C.ar    1  UNL1        0.0089
      6 C          60.9196   89.7352    8.5370 C.ar    1  UNL1       -0.0034
      7 N          59.1379   91.9484    3.9352 N.3     1  UNL1       -0.2712
      8 C          58.0123   91.4460    4.7898 C.3     1  UNL1        0.0725
      9 C          58.3001   90.5530    5.9602 C.3     1  UNL1        0.0217
     10 C          59.7135   90.1625    6.2759 C.3     1  UNL1        0.0251
     11 C          60.8391   90.6649    5.4213 C.3     1  UNL1        0.0217
     12 C          60.5513   91.5579    4.2509 C.3     1  UNL1        0.0725
     13 C          58.8501   92.8414    2.7648 C.3     1  UNL1        0.0977
     14 C          59.7783   92.8561    1.5866 C.3     1  UNL1        0.1681
     15 C          61.9653   94.9033    1.4253 C.3     1  UNL1        0.1761
     16 S          60.8718   93.8797    1.5059 S.O2    1  UNL1       -0.0068
     17 O          61.7764   92.8636    0.8741 O.2     1  UNL1       -0.1729
     18 O          59.9672   94.8959    2.1377 O.2     1  UNL1       -0.1729
     19 C          62.1259   89.3079   10.7981 C.2     1  UNL1       -0.0253
     20 C          62.5208   90.7527   10.8801 C.2     1  UNL1       -0.0303
     21 C          63.4393   91.2184   11.9707 C.3     1  UNL1        0.0257
     22 C          63.9628   90.2393   12.9795 C.3     1  UNL1        0.0050
     23 C          63.5679   88.7946   12.8975 C.3     1  UNL1        0.0050
     24 C          62.6494   88.3289   11.8068 C.3     1  UNL1        0.0261
     25 N          60.8645   86.5906   10.9575 N.am    1  UNL1       -0.2779
     26 C          61.9545   85.5641   10.8675 C.2     1  UNL1        0.2837
     27 O          62.7568   85.4305    9.6071 O.2     1  UNL1       -0.2665
     28 H          60.3380   86.6783   11.7847 H       1  UNL1        0.1553
     29 C          62.2423   84.6711   12.0379 C.ar    1  UNL1        0.1959
     30 N          62.4908   83.1930   11.9790 N.ar    1  UNL1       -0.2123
     31 C          62.7342   82.7078   13.3774 C.ar    1  UNL1        0.1678
     32 C          62.6361   83.8861   14.3005 C.ar    1  UNL1        0.1036
     33 N          62.3321   85.0995   13.4727 N.ar    1  UNL1       -0.3319
     34 H          62.2125   86.0161   13.8115 H       1  UNL1        0.1676
     35 C          63.0246   81.2929   13.7817 C.1     1  UNL1        0.1214
     36 N          63.3151   79.8780   14.1860 N.1     1  UNL1       -0.1892
@<TRIPOS>BOND
     1    15    16    1
     2    16    17    2
     3    16    18    2
     4    16    14    1
     5    14    13    1
     6    13     7    1
     7     7     8    1
     8     8     9    1
     9     9    10    1
    10    10     1    1
    11     1     2   ar
    12     2     3   ar
    13     3     4   ar
    14     4    25    1
    15    25    26   am
    16    26    27    2
    17    26    29    1
    18    29    30   ar
    19    30    31   ar
    20    31    35    1
    21    35    36    3
    22    31    32   ar
    23    32    33   ar
    24     4     5   ar
    25     5    19    1
    26    19    20    2
    27    20    21    1
    28    21    22    1
    29    22    23    1
    30    23    24    1
    31     5     6   ar
    32    10    11    1
    33    11    12    1
    34    12     7    1
    35     6     1   ar
    36    33    29   ar
    37    24    19    1
    38    25    28    1
    39    33    34    1
