@<TRIPOS>MOLECULE
*****
 30 34 0 0 0
SMALL
GASTEIGER

@<TRIPOS>ATOM
      1 C          64.5841   89.6391   14.2426 C.2     1  UNL1       -0.0029
      2 C          65.6621   90.3969   14.9595 C.2     1  UNL1        0.0192
      3 C          66.0978   91.7401   14.4538 C.2     1  UNL1        0.1207
      4 N          67.1273   92.7129   14.9475 N.2     1  UNL1       -0.0381
      5 N          67.1214   93.8995   14.0300 N.2     1  UNL1        0.0756
      6 C          66.0881   93.6602   12.9693 C.2     1  UNL1        0.3335
      7 C          65.4555   92.3256   13.2312 C.3     1  UNL1        0.1733
      8 C          64.3776   91.5678   12.5144 C.2     1  UNL1       -0.0125
      9 C          63.9419   90.2246   13.0201 C.2     1  UNL1       -0.0258
     10 C          62.5102   86.6979   17.9908 C.3     1  UNL1        0.0521
     11 C          63.1115   86.8252   16.6225 C.ar    1  UNL1        0.0590
     12 C          63.5472   88.1684   16.1168 C.ar    1  UNL1        0.0147
     13 C          64.1484   88.2957   14.7484 C.ar    1  UNL1        0.0021
     14 C          64.3140   87.0798   13.8859 C.ar    1  UNL1        0.0147
     15 C          63.8784   85.7365   14.3917 C.ar    1  UNL1        0.0590
     16 C          64.0440   84.5205   13.5290 C.3     1  UNL1        0.0521
     17 N          63.2771   85.6092   15.7600 N.ar    1  UNL1       -0.2540
     18 C          62.8640   89.4668   12.3032 C.3     1  UNL1        0.0221
     19 C          61.4169   89.2861   11.9519 C.3     1  UNL1        0.0047
     20 C          62.4440   88.3350   11.4129 C.3     1  UNL1        0.0047
     21 N          65.7474   94.5919   11.8442 N.pl3   1  UNL1       -0.2209
     22 H          65.0328   95.2596   11.9573 H       1  UNL1        0.2920
     23 C          66.4954   94.5064   10.5468 C.3     1  UNL1        0.1917
     24 C          67.3138   93.2895   10.2319 C.3     1  UNL1        0.0664
     25 C          68.0618   93.2038    8.9346 C.3     1  UNL1        0.0729
     26 N          67.9914   94.3353    7.9522 N.3     1  UNL1       -0.2950
     27 C          67.1729   95.5522    8.2672 C.3     1  UNL1        0.1085
     28 C          66.4250   95.6377    9.5645 C.3     1  UNL1        0.2186
     29 F          65.6065   96.8546    9.8795 F       1  UNL1       -0.2315
     30 H          67.6218   93.9486    7.0837 H       1  UNL1        0.1233
@<TRIPOS>BOND
     1    10    11    1
     2    11    12   ar
     3    12    13   ar
     4    13     1    1
     5     1     2    2
     6     2     3    1
     7     3     4    2
     8     4     5    1
     9     5     6    2
    10     6    21    1
    11    23    21    1
    12    23    24    1
    13    24    25    1
    14    25    26    1
    15    26    27    1
    16    27    28    1
    17    28    29    1
    18     6     7    1
    19     7     8    1
    20     8     9    2
    21     9    18    1
    22    18    19    1
    23    19    20    1
    24    13    14   ar
    25    14    15   ar
    26    15    16    1
    27    15    17   ar
    28    17    11   ar
    29     9     1    1
    30    20    18    1
    31     7     3    1
    32    28    23    1
    33    21    22    1
    34    26    30    1
@<TRIPOS>MOLECULE
*****
 30 34 0 0 0
SMALL
GASTEIGER

@<TRIPOS>ATOM
      1 C          64.5861   89.6440   14.2390 C.2     1  UNL1       -0.0029
      2 C          65.6686   90.3927   14.9587 C.2     1  UNL1        0.0192
      3 C          66.1078   91.7380   14.4615 C.2     1  UNL1        0.1207
      4 N          67.1421   92.7034   14.9597 N.2     1  UNL1       -0.0381
      5 N          67.1382   93.8967   14.0508 N.2     1  UNL1        0.0756
      6 C          66.1014   93.6688   12.9910 C.2     1  UNL1        0.3335
      7 C          65.4646   92.3346   13.2448 C.3     1  UNL1        0.1733
      8 C          64.3822   91.5859   12.5253 C.2     1  UNL1       -0.0125
      9 C          63.9430   90.2406   13.0224 C.2     1  UNL1       -0.0258
     10 C          64.0175   84.5341   13.4864 C.3     1  UNL1        0.0521
     11 C          63.8625   85.7437   14.3598 C.ar    1  UNL1        0.0590
     12 C          64.3018   87.0890   13.8627 C.ar    1  UNL1        0.0147
     13 C          64.1469   88.2986   14.7362 C.ar    1  UNL1        0.0021
     14 C          63.5527   88.1628   16.1068 C.ar    1  UNL1        0.0147
     15 C          63.1134   86.8175   16.6039 C.ar    1  UNL1        0.0590
     16 C          62.5192   86.6818   17.9745 C.3     1  UNL1        0.0521
     17 N          63.2684   85.6079   15.7304 N.ar    1  UNL1       -0.2540
     18 C          62.8605   89.4919   12.3028 C.3     1  UNL1        0.0221
     19 C          62.4366   88.3815   11.3878 C.3     1  UNL1        0.0047
     20 C          61.4095   89.3057   11.9714 C.3     1  UNL1        0.0047
     21 N          65.7613   94.6099   11.8735 N.pl3   1  UNL1       -0.2209
     22 H          65.0559   95.2855   11.9965 H       1  UNL1        0.2920
     23 C          66.4959   94.5215   10.5687 C.3     1  UNL1        0.1917
     24 C          67.3231   93.3104   10.2543 C.3     1  UNL1        0.0664
     25 C          68.0577   93.2220    8.9495 C.3     1  UNL1        0.0729
     26 N          67.9650   94.3448    7.9591 N.3     1  UNL1       -0.2950
     27 C          67.1377   95.5558    8.2735 C.3     1  UNL1        0.1085
     28 C          66.4032   95.6442    9.5783 C.3     1  UNL1        0.2186
     29 F          65.5759   96.8553    9.8927 F       1  UNL1       -0.2315
     30 H          67.5898   93.9474    7.0978 H       1  UNL1        0.1233
@<TRIPOS>BOND
     1    10    11    1
     2    11    12   ar
     3    12    13   ar
     4    13     1    1
     5     1     2    2
     6     2     3    1
     7     3     4    2
     8     4     5    1
     9     5     6    2
    10     6    21    1
    11    23    21    1
    12    23    24    1
    13    24    25    1
    14    25    26    1
    15    26    27    1
    16    27    28    1
    17    28    29    1
    18     6     7    1
    19     7     8    1
    20     8     9    2
    21     9    18    1
    22    18    19    1
    23    19    20    1
    24    13    14   ar
    25    14    15   ar
    26    15    16    1
    27    15    17   ar
    28    17    11   ar
    29     9     1    1
    30    20    18    1
    31     7     3    1
    32    28    23    1
    33    21    22    1
    34    26    30    1
@<TRIPOS>MOLECULE
*****
 30 34 0 0 0
SMALL
GASTEIGER

@<TRIPOS>ATOM
      1 C          62.8752   85.9473   12.0833 C.2     1  UNL1       -0.0029
      2 C          62.1988   86.6755   10.9597 C.2     1  UNL1        0.0192
      3 C          62.2152   88.1749   10.9204 C.2     1  UNL1        0.1207
      4 N          61.6388   89.1597    9.9468 N.2     1  UNL1       -0.0381
      5 N          61.9752   90.5395   10.4294 N.2     1  UNL1        0.0756
      6 C          62.7595   90.4075   11.7012 C.2     1  UNL1        0.3335
      7 C          62.9079   88.9460   12.0046 C.3     1  UNL1        0.1733
      8 C          63.5842   88.2178   13.1281 C.2     1  UNL1       -0.0125
      9 C          63.5678   86.7184   13.1674 C.2     1  UNL1       -0.0258
     10 C          61.7011   81.5227   14.5419 C.3     1  UNL1        0.0521
     11 C          62.2718   82.2356   13.3519 C.ar    1  UNL1        0.0590
     12 C          62.2882   83.7349   13.3126 C.ar    1  UNL1        0.0147
     13 C          62.8588   84.4478   12.1226 C.ar    1  UNL1        0.0021
     14 C          63.4132   83.6613   10.9719 C.ar    1  UNL1        0.0147
     15 C          63.3968   82.1619   11.0112 C.ar    1  UNL1        0.0590
     16 C          63.9512   81.3755    9.8604 C.3     1  UNL1        0.0521
     17 N          62.8261   81.4491   12.2012 N.ar    1  UNL1       -0.2540
     18 C          64.2441   85.9902   14.2910 C.3     1  UNL1        0.0221
     19 C          65.3744   85.1433   14.7961 C.3     1  UNL1        0.0047
     20 C          64.2851   85.5760   15.7321 C.3     1  UNL1        0.0047
     21 N          63.3005   91.5384   12.5248 N.pl3   1  UNL1       -0.2209
     22 H          62.6924   92.0771   13.0809 H       1  UNL1        0.2920
     23 C          64.7679   91.8485   12.5012 C.3     1  UNL1        0.1917
     24 C          65.3923   92.4272   11.2663 C.3     1  UNL1        0.0664
     25 C          66.8597   92.7373   11.2426 C.3     1  UNL1        0.0729
     26 N          67.7027   92.4686   12.4539 N.3     1  UNL1       -0.2950
     27 C          67.0782   91.8898   13.6888 C.3     1  UNL1        0.1085
     28 C          65.6109   91.5797   13.7125 C.3     1  UNL1        0.2186
     29 F          64.9864   91.0009   14.9474 F       1  UNL1       -0.2315
     30 H          68.1210   93.3585   12.7249 H       1  UNL1        0.1233
@<TRIPOS>BOND
     1    10    11    1
     2    11    12   ar
     3    12    13   ar
     4    13     1    1
     5     1     2    2
     6     2     3    1
     7     3     4    2
     8     4     5    1
     9     5     6    2
    10     6    21    1
    11    23    21    1
    12    23    24    1
    13    24    25    1
    14    25    26    1
    15    26    27    1
    16    27    28    1
    17    28    29    1
    18     6     7    1
    19     7     8    1
    20     8     9    2
    21     9    18    1
    22    18    19    1
    23    19    20    1
    24    13    14   ar
    25    14    15   ar
    26    15    16    1
    27    15    17   ar
    28    17    11   ar
    29     9     1    1
    30    20    18    1
    31     7     3    1
    32    28    23    1
    33    21    22    1
    34    26    30    1
@<TRIPOS>MOLECULE
*****
 30 34 0 0 0
SMALL
GASTEIGER

@<TRIPOS>ATOM
      1 C          62.8679   85.9407   12.0761 C.2     1  UNL1       -0.0029
      2 C          62.1914   86.6687   10.9524 C.2     1  UNL1        0.0192
      3 C          62.2078   88.1681   10.9129 C.2     1  UNL1        0.1207
      4 N          61.6312   89.1527    9.9392 N.2     1  UNL1       -0.0381
      5 N          61.9677   90.5327   10.4214 N.2     1  UNL1        0.0756
      6 C          62.7523   90.4009   11.6931 C.2     1  UNL1        0.3335
      7 C          62.9006   88.9394   11.9968 C.3     1  UNL1        0.1733
      8 C          63.5771   88.2114   13.1204 C.2     1  UNL1       -0.0125
      9 C          63.5608   86.7121   13.1599 C.2     1  UNL1       -0.0258
     10 C          63.9589   81.3684    9.8614 C.3     1  UNL1        0.0521
     11 C          63.3971   82.1552   11.0083 C.ar    1  UNL1        0.0590
     12 C          63.4134   83.6545   10.9687 C.ar    1  UNL1        0.0147
     13 C          62.8516   84.4413   12.1156 C.ar    1  UNL1        0.0021
     14 C          62.2734   83.7286   13.3021 C.ar    1  UNL1        0.0147
     15 C          62.2570   82.2292   13.3417 C.ar    1  UNL1        0.0590
     16 C          61.6788   81.5166   14.5283 C.3     1  UNL1        0.0521
     17 N          62.8189   81.4425   12.1948 N.ar    1  UNL1       -0.2540
     18 C          64.2373   85.9841   14.2835 C.3     1  UNL1        0.0221
     19 C          65.3650   85.1330   14.7874 C.3     1  UNL1        0.0047
     20 C          64.2812   85.5743   15.7258 C.3     1  UNL1        0.0047
     21 N          63.2934   91.5319   12.5164 N.pl3   1  UNL1       -0.2209
     22 H          62.6865   92.0662   13.0781 H       1  UNL1        0.2920
     23 C          64.7592   91.8489   12.4841 C.3     1  UNL1        0.1917
     24 C          65.3756   92.4205   11.2418 C.3     1  UNL1        0.0664
     25 C          66.8413   92.7375   11.2094 C.3     1  UNL1        0.0729
     26 N          67.6907   92.4828   12.4193 N.3     1  UNL1       -0.2950
     27 C          67.0742   91.9111   13.6615 C.3     1  UNL1        0.1085
     28 C          65.6085   91.5941   13.6939 C.3     1  UNL1        0.2186
     29 F          64.9921   91.0224   14.9361 F       1  UNL1       -0.2315
     30 H          68.1058   93.3769   12.6813 H       1  UNL1        0.1233
@<TRIPOS>BOND
     1    10    11    1
     2    11    12   ar
     3    12    13   ar
     4    13     1    1
     5     1     2    2
     6     2     3    1
     7     3     4    2
     8     4     5    1
     9     5     6    2
    10     6    21    1
    11    23    21    1
    12    23    24    1
    13    24    25    1
    14    25    26    1
    15    26    27    1
    16    27    28    1
    17    28    29    1
    18     6     7    1
    19     7     8    1
    20     8     9    2
    21     9    18    1
    22    18    19    1
    23    19    20    1
    24    13    14   ar
    25    14    15   ar
    26    15    16    1
    27    15    17   ar
    28    17    11   ar
    29     9     1    1
    30    20    18    1
    31     7     3    1
    32    28    23    1
    33    21    22    1
    34    26    30    1
@<TRIPOS>MOLECULE
*****
 30 34 0 0 0
SMALL
GASTEIGER

@<TRIPOS>ATOM
      1 C          65.5569   92.2243   12.0299 C.2     1  UNL1       -0.0029
      2 C          64.2310   91.7268   11.5352 C.2     1  UNL1        0.0192
      3 C          63.3363   90.9422   12.4485 C.2     1  UNL1        0.1207
      4 N          61.9838   90.3269   12.2433 N.2     1  UNL1       -0.0381
      5 N          61.5791   89.6596   13.5243 N.2     1  UNL1        0.0756
      6 C          62.6814   89.8625   14.5211 C.2     1  UNL1        0.3335
      7 C          63.7675   90.6552   13.8562 C.3     1  UNL1        0.1733
      8 C          65.0933   91.1527   14.3507 C.2     1  UNL1       -0.0125
      9 C          65.9880   91.9373   13.4375 C.2     1  UNL1       -0.0258
     10 C          69.3818   92.3760    8.5160 C.3     1  UNL1        0.0521
     11 C          68.3641   93.0848    9.3597 C.ar    1  UNL1        0.0590
     12 C          67.4694   92.3002   10.2729 C.ar    1  UNL1        0.0147
     13 C          66.4516   93.0089   11.1166 C.ar    1  UNL1        0.0021
     14 C          66.3286   94.5023   11.0471 C.ar    1  UNL1        0.0147
     15 C          67.2232   95.2868   10.1339 C.ar    1  UNL1        0.0590
     16 C          67.1001   96.7802   10.0644 C.3     1  UNL1        0.0521
     17 N          68.2410   94.5781    9.2902 N.ar    1  UNL1       -0.2540
     18 C          67.3139   92.4349   13.9321 C.3     1  UNL1        0.0221
     19 C          68.8129   92.3947   13.8941 C.3     1  UNL1        0.0047
     20 C          68.1113   93.3369   14.8268 C.3     1  UNL1        0.0047
     21 N          62.6953   89.3607   15.9346 N.pl3   1  UNL1       -0.2209
     22 H          62.4427   89.9614   16.6727 H       1  UNL1        0.2920
     23 C          63.0940   87.9439   16.2237 C.3     1  UNL1        0.1917
     24 C          62.6200   87.2725   17.4785 C.3     1  UNL1        0.0664
     25 C          63.0186   85.8557   17.7677 C.3     1  UNL1        0.0729
     26 N          63.8914   85.1102   16.8018 N.3     1  UNL1       -0.2950
     27 C          64.3654   85.7816   15.5470 C.3     1  UNL1        0.1085
     28 C          63.9667   87.1984   15.2580 C.3     1  UNL1        0.2186
     29 F          64.4407   87.8698   14.0032 F       1  UNL1       -0.2315
     30 H          63.3710   84.2816   16.5139 H       1  UNL1        0.1233
@<TRIPOS>BOND
     1    10    11    1
     2    11    12   ar
     3    12    13   ar
     4    13     1    1
     5     1     2    2
     6     2     3    1
     7     3     4    2
     8     4     5    1
     9     5     6    2
    10     6    21    1
    11    23    21    1
    12    23    24    1
    13    24    25    1
    14    25    26    1
    15    26    27    1
    16    27    28    1
    17    28    29    1
    18     6     7    1
    19     7     8    1
    20     8     9    2
    21     9    18    1
    22    18    19    1
    23    19    20    1
    24    13    14   ar
    25    14    15   ar
    26    15    16    1
    27    15    17   ar
    28    17    11   ar
    29     9     1    1
    30    20    18    1
    31     7     3    1
    32    28    23    1
    33    21    22    1
    34    26    30    1
@<TRIPOS>MOLECULE
*****
 30 34 0 0 0
SMALL
GASTEIGER

@<TRIPOS>ATOM
      1 C          65.5612   92.2207   12.0246 C.2     1  UNL1       -0.0029
      2 C          64.2341   91.7271   11.5293 C.2     1  UNL1        0.0192
      3 C          63.3385   90.9417   12.4408 C.2     1  UNL1        0.1207
      4 N          61.9847   90.3295   12.2346 N.2     1  UNL1       -0.0381
      5 N          61.5794   89.6593   13.5139 N.2     1  UNL1        0.0756
      6 C          62.6827   89.8573   14.5107 C.2     1  UNL1        0.3335
      7 C          63.7699   90.6498   13.8475 C.3     1  UNL1        0.1733
      8 C          65.0969   91.1434   14.3426 C.2     1  UNL1       -0.0125
      9 C          65.9926   91.9289   13.4312 C.2     1  UNL1       -0.0258
     10 C          67.1119   96.7792   10.0710 C.3     1  UNL1        0.0521
     11 C          67.2322   95.2855   10.1363 C.ar    1  UNL1        0.0590
     12 C          66.3366   94.5000   11.0478 C.ar    1  UNL1        0.0147
     13 C          66.4570   93.0063   11.1131 C.ar    1  UNL1        0.0021
     14 C          67.4730   92.2980   10.2669 C.ar    1  UNL1        0.0147
     15 C          68.3687   93.0835    9.3554 C.ar    1  UNL1        0.0590
     16 C          69.3847   92.3751    8.5092 C.3     1  UNL1        0.0521
     17 N          68.2483   94.5772    9.2901 N.ar    1  UNL1       -0.2540
     18 C          67.3197   92.4225   13.9264 C.3     1  UNL1        0.0221
     19 C          68.1194   93.3185   14.8251 C.3     1  UNL1        0.0047
     20 C          68.8186   92.3813   13.8855 C.3     1  UNL1        0.0047
     21 N          62.6964   89.3515   15.9228 N.pl3   1  UNL1       -0.2209
     22 H          62.4392   89.9486   16.6621 H       1  UNL1        0.2920
     23 C          63.1018   87.9358   16.2085 C.3     1  UNL1        0.1917
     24 C          62.6327   87.2600   17.4627 C.3     1  UNL1        0.0664
     25 C          63.0382   85.8444   17.7485 C.3     1  UNL1        0.0729
     26 N          63.9128   85.1047   16.7799 N.3     1  UNL1       -0.2950
     27 C          64.3819   85.7806   15.5257 C.3     1  UNL1        0.1085
     28 C          63.9764   87.1962   15.2400 C.3     1  UNL1        0.2186
     29 F          64.4455   87.8721   13.9858 F       1  UNL1       -0.2315
     30 H          63.3957   84.2743   16.4911 H       1  UNL1        0.1233
@<TRIPOS>BOND
     1    10    11    1
     2    11    12   ar
     3    12    13   ar
     4    13     1    1
     5     1     2    2
     6     2     3    1
     7     3     4    2
     8     4     5    1
     9     5     6    2
    10     6    21    1
    11    23    21    1
    12    23    24    1
    13    24    25    1
    14    25    26    1
    15    26    27    1
    16    27    28    1
    17    28    29    1
    18     6     7    1
    19     7     8    1
    20     8     9    2
    21     9    18    1
    22    18    19    1
    23    19    20    1
    24    13    14   ar
    25    14    15   ar
    26    15    16    1
    27    15    17   ar
    28    17    11   ar
    29     9     1    1
    30    20    18    1
    31     7     3    1
    32    28    23    1
    33    21    22    1
    34    26    30    1
@<TRIPOS>MOLECULE
*****
 30 34 0 0 0
SMALL
GASTEIGER

@<TRIPOS>ATOM
      1 C          62.3499   85.2382   10.7439 C.2     1  UNL1       -0.0029
      2 C          62.6732   83.8717   11.2715 C.2     1  UNL1        0.0192
      3 C          63.2378   83.7152   12.6524 C.2     1  UNL1        0.1207
      4 N          63.6508   82.5051   13.4366 N.2     1  UNL1       -0.0381
      5 N          64.1473   82.9671   14.7745 N.2     1  UNL1        0.0756
      6 C          64.0412   84.4627   14.8171 C.2     1  UNL1        0.3335
      7 C          63.4791   84.9251   13.5056 C.3     1  UNL1        0.1733
      8 C          63.1558   86.2915   12.9779 C.2     1  UNL1       -0.0125
      9 C          62.5912   86.4480   11.5971 C.2     1  UNL1       -0.0258
     10 C          62.6287   84.3187    5.6373 C.3     1  UNL1        0.0521
     11 C          61.9247   84.9350    6.8097 C.ar    1  UNL1        0.0590
     12 C          62.4893   84.7785    8.1906 C.ar    1  UNL1        0.0147
     13 C          61.7853   85.3948    9.3630 C.ar    1  UNL1        0.0021
     14 C          60.5167   86.1676    9.1546 C.ar    1  UNL1        0.0147
     15 C          59.9521   86.3241    7.7738 C.ar    1  UNL1        0.0590
     16 C          58.6835   87.0970    7.5654 C.3     1  UNL1        0.0521
     17 N          60.6561   85.7078    6.6013 N.ar    1  UNL1       -0.2540
     18 C          62.2679   87.8145   11.0695 C.3     1  UNL1        0.0221
     19 C          62.4921   88.9058   10.0652 C.3     1  UNL1        0.0047
     20 C          61.4836   89.0900   11.1602 C.3     1  UNL1        0.0047
     21 N          64.4291   85.3416   15.9691 N.pl3   1  UNL1       -0.2209
     22 H          64.9382   84.9675   16.7241 H       1  UNL1        0.2920
     23 C          64.0413   86.7907   15.9708 C.3     1  UNL1        0.1917
     24 C          64.5667   87.7088   14.9074 C.3     1  UNL1        0.0664
     25 C          64.1790   89.1578   14.9089 C.3     1  UNL1        0.0729
     26 N          63.2658   89.6886   15.9741 N.3     1  UNL1       -0.2950
     27 C          62.7404   88.7704   17.0374 C.3     1  UNL1        0.1085
     28 C          63.1281   87.3215   17.0358 C.3     1  UNL1        0.2186
     29 F          62.6027   86.4033   18.0992 F       1  UNL1       -0.2315
     30 H          62.4543   90.0816   15.4971 H       1  UNL1        0.1233
@<TRIPOS>BOND
     1    10    11    1
     2    11    12   ar
     3    12    13   ar
     4    13     1    1
     5     1     2    2
     6     2     3    1
     7     3     4    2
     8     4     5    1
     9     5     6    2
    10     6    21    1
    11    23    21    1
    12    23    24    1
    13    24    25    1
    14    25    26    1
    15    26    27    1
    16    27    28    1
    17    28    29    1
    18     6     7    1
    19     7     8    1
    20     8     9    2
    21     9    18    1
    22    18    19    1
    23    19    20    1
    24    13    14   ar
    25    14    15   ar
    26    15    16    1
    27    15    17   ar
    28    17    11   ar
    29     9     1    1
    30    20    18    1
    31     7     3    1
    32    28    23    1
    33    21    22    1
    34    26    30    1
@<TRIPOS>MOLECULE
*****
 30 34 0 0 0
SMALL
GASTEIGER

@<TRIPOS>ATOM
      1 C          64.2708   88.7267   13.8934 C.2     1  UNL1       -0.0029
      2 C          64.6995   87.6110   14.7998 C.2     1  UNL1        0.0192
      3 C          64.2779   86.2018   14.5057 C.2     1  UNL1        0.1207
      4 N          64.5446   84.9062   15.2129 N.2     1  UNL1       -0.0381
      5 N          63.8591   83.8119   14.4495 N.2     1  UNL1        0.0756
      6 C          63.1689   84.4313   13.2705 C.2     1  UNL1        0.3335
      7 C          63.4277   85.9084   13.3052 C.3     1  UNL1        0.1733
      8 C          62.9991   87.0241   12.3989 C.2     1  UNL1       -0.0125
      9 C          63.4207   88.4333   12.6930 C.2     1  UNL1       -0.0258
     10 C          64.6572   92.7093   17.2085 C.3     1  UNL1        0.0521
     11 C          64.8855   92.1272   15.8451 C.ar    1  UNL1        0.0590
     12 C          64.4640   90.7181   15.5510 C.ar    1  UNL1        0.0147
     13 C          64.6924   90.1360   14.1875 C.ar    1  UNL1        0.0021
     14 C          65.3423   90.9631   13.1182 C.ar    1  UNL1        0.0147
     15 C          65.7638   92.3722   13.4123 C.ar    1  UNL1        0.0590
     16 C          66.4138   93.1993   12.3428 C.3     1  UNL1        0.0521
     17 N          65.5355   92.9543   14.7757 N.ar    1  UNL1       -0.2540
     18 C          62.9920   89.5490   11.7866 C.3     1  UNL1        0.0221
     19 C          63.0939   90.2688   10.4746 C.3     1  UNL1        0.0047
     20 C          62.1475   90.7616   11.5289 C.3     1  UNL1        0.0047
     21 N          62.3616   83.7017   12.2381 N.pl3   1  UNL1       -0.2209
     22 H          61.7566   84.2010   11.6431 H       1  UNL1        0.2920
     23 C          62.4761   82.2114   12.1120 C.3     1  UNL1        0.1917
     24 C          63.0484   81.6060   10.8647 C.3     1  UNL1        0.0664
     25 C          63.1629   80.1157   10.7385 C.3     1  UNL1        0.0729
     26 N          62.7051   79.2308   11.8600 N.3     1  UNL1       -0.2950
     27 C          62.1329   79.8363   13.1073 C.3     1  UNL1        0.1085
     28 C          62.0184   81.3265   13.2334 C.3     1  UNL1        0.2186
     29 F          61.4461   81.9319   14.4807 F       1  UNL1       -0.2315
     30 H          63.5120   78.6759   12.1454 H       1  UNL1        0.1233
@<TRIPOS>BOND
     1    10    11    1
     2    11    12   ar
     3    12    13   ar
     4    13     1    1
     5     1     2    2
     6     2     3    1
     7     3     4    2
     8     4     5    1
     9     5     6    2
    10     6    21    1
    11    23    21    1
    12    23    24    1
    13    24    25    1
    14    25    26    1
    15    26    27    1
    16    27    28    1
    17    28    29    1
    18     6     7    1
    19     7     8    1
    20     8     9    2
    21     9    18    1
    22    18    19    1
    23    19    20    1
    24    13    14   ar
    25    14    15   ar
    26    15    16    1
    27    15    17   ar
    28    17    11   ar
    29     9     1    1
    30    20    18    1
    31     7     3    1
    32    28    23    1
    33    21    22    1
    34    26    30    1
@<TRIPOS>MOLECULE
*****
 30 34 0 0 0
SMALL
GASTEIGER

@<TRIPOS>ATOM
      1 C          64.2755   88.7171   13.8925 C.2     1  UNL1       -0.0029
      2 C          64.6967   87.6014   14.8024 C.2     1  UNL1        0.0192
      3 C          64.2731   86.1929   14.5077 C.2     1  UNL1        0.1207
      4 N          64.5328   84.8974   15.2177 N.2     1  UNL1       -0.0381
      5 N          63.8486   83.8040   14.4520 N.2     1  UNL1        0.0756
      6 C          63.1660   84.4238   13.2688 C.2     1  UNL1        0.3335
      7 C          63.4283   85.9002   13.3032 C.3     1  UNL1        0.1733
      8 C          63.0072   87.0160   12.3935 C.2     1  UNL1       -0.0125
      9 C          63.4308   88.4244   12.6882 C.2     1  UNL1       -0.0258
     10 C          66.4208   93.1888   12.3425 C.3     1  UNL1        0.0521
     11 C          65.7717   92.3614   13.4122 C.ar    1  UNL1        0.0590
     12 C          65.3481   90.9530   13.1176 C.ar    1  UNL1        0.0147
     13 C          64.6991   90.1256   14.1872 C.ar    1  UNL1        0.0021
     14 C          64.4736   90.7067   15.5516 C.ar    1  UNL1        0.0147
     15 C          64.8972   92.1152   15.8463 C.ar    1  UNL1        0.0590
     16 C          64.6717   92.6962   17.2107 C.3     1  UNL1        0.0521
     17 N          65.5463   92.9425   14.7766 N.ar    1  UNL1       -0.2540
     18 C          63.0096   89.5402   11.7783 C.3     1  UNL1        0.0221
     19 C          62.3299   90.8612   11.5712 C.3     1  UNL1        0.0047
     20 C          62.9598   90.1516   10.4094 C.3     1  UNL1        0.0047
     21 N          62.3622   83.6950   12.2330 N.pl3   1  UNL1       -0.2209
     22 H          61.7572   84.1945   11.6383 H       1  UNL1        0.2920
     23 C          62.4801   82.2053   12.1035 C.3     1  UNL1        0.1917
     24 C          63.0581   81.6043   10.8567 C.3     1  UNL1        0.0664
     25 C          63.1761   80.1146   10.7270 C.3     1  UNL1        0.0729
     26 N          62.7159   79.2259   11.8444 N.3     1  UNL1       -0.2950
     27 C          62.1379   79.8269   13.0913 C.3     1  UNL1        0.1085
     28 C          62.0200   81.3165   13.2208 C.3     1  UNL1        0.2186
     29 F          61.4420   81.9175   14.4677 F       1  UNL1       -0.2315
     30 H          63.5229   78.6718   12.1313 H       1  UNL1        0.1233
@<TRIPOS>BOND
     1    10    11    1
     2    11    12   ar
     3    12    13   ar
     4    13     1    1
     5     1     2    2
     6     2     3    1
     7     3     4    2
     8     4     5    1
     9     5     6    2
    10     6    21    1
    11    23    21    1
    12    23    24    1
    13    24    25    1
    14    25    26    1
    15    26    27    1
    16    27    28    1
    17    28    29    1
    18     6     7    1
    19     7     8    1
    20     8     9    2
    21     9    18    1
    22    18    19    1
    23    19    20    1
    24    13    14   ar
    25    14    15   ar
    26    15    16    1
    27    15    17   ar
    28    17    11   ar
    29     9     1    1
    30    20    18    1
    31     7     3    1
    32    28    23    1
    33    21    22    1
    34    26    30    1
