@<TRIPOS>MOLECULE
*****
 27 29 0 0 0
SMALL
GASTEIGER

@<TRIPOS>ATOM
      1 O          63.0496   89.5726   12.0341 O.2     1  UNL1       -0.2830
      2 C          62.4834   88.2871   11.5078 C.ar    1  UNL1        0.2379
      3 C          62.8613   86.9838   12.1469 C.ar    1  UNL1        0.2082
      4 O          63.8055   86.9659   13.3123 O.3     1  UNL1       -0.5007
      5 C          62.2951   85.6984   11.6205 C.ar    1  UNL1        0.1819
      6 O          61.3510   85.7162   10.4551 O.2     1  UNL1       -0.4500
      7 C          60.9730   87.0196    9.8160 C.ar    1  UNL1        0.1545
      8 C          60.0288   87.0375    8.6506 C.ar    1  UNL1        0.0744
      9 C          59.6509   88.3408    8.0115 C.ar    1  UNL1        0.1397
     10 O          58.7067   88.3587    6.8460 O.3     1  UNL1       -0.5053
     11 C          60.2171   89.6262    8.5378 C.ar    1  UNL1        0.0735
     12 C          61.1612   89.6084    9.7032 C.ar    1  UNL1        0.1428
     13 O          61.7274   90.8938   10.2295 O.3     1  UNL1       -0.5052
     14 C          61.5392   88.3051   10.3423 C.ar    1  UNL1        0.1104
     15 H          64.1592   87.7689   13.6411 H       1  UNL1        0.2924
     16 H          58.3530   87.5557    6.5172 H       1  UNL1        0.2922
     17 H          61.4913   91.7080    9.8303 H       1  UNL1        0.2922
     18 C          62.6731   84.3950   12.2597 C.ar    1  UNL1        0.0409
     19 C          63.1874   83.2670   11.4154 C.ar    1  UNL1        0.0064
     20 C          63.5654   81.9637   12.0545 C.ar    1  UNL1        0.0399
     21 C          63.4290   81.7885   13.5380 C.ar    1  UNL1        0.1675
     22 O          63.8070   80.4851   14.1772 O.3     1  UNL1       -0.5029
     23 C          62.9147   82.9165   14.3823 C.ar    1  UNL1        0.1676
     24 O          62.7783   82.7413   15.8658 O.3     1  UNL1       -0.5029
     25 C          62.5367   84.2198   13.7432 C.ar    1  UNL1        0.0429
     26 H          64.1283   79.7804   13.6497 H       1  UNL1        0.2923
     27 H          63.0144   81.9272   16.2651 H       1  UNL1        0.2923
@<TRIPOS>BOND
     1     1     2    2
     2     2     3   ar
     3     3     4    1
     4     3     5   ar
     5     5    18    1
     6    18    19   ar
     7    19    20   ar
     8    20    21   ar
     9    21    22    1
    10    21    23   ar
    11    23    24    1
    12    23    25   ar
    13     5     6   ar
    14     6     7   ar
    15     7     8   ar
    16     8     9   ar
    17     9    10    1
    18     9    11   ar
    19    11    12   ar
    20    12    13    1
    21    12    14   ar
    22    14     2   ar
    23    25    18   ar
    24    14     7   ar
    25     4    15    1
    26    22    26    1
    27    24    27    1
    28    10    16    1
    29    13    17    1
@<TRIPOS>MOLECULE
*****
 27 29 0 0 0
SMALL
GASTEIGER

@<TRIPOS>ATOM
      1 O          61.3549   88.7385    9.4716 O.2     1  UNL1       -0.2830
      2 C          62.0641   88.1260   10.6428 C.ar    1  UNL1        0.2379
      3 C          62.0777   86.6361   10.8161 C.ar    1  UNL1        0.2082
      4 O          61.3820   85.7586    9.8180 O.3     1  UNL1       -0.5007
      5 C          62.7869   86.0237   11.9874 C.ar    1  UNL1        0.1819
      6 O          63.4826   86.9011   12.9854 O.2     1  UNL1       -0.4500
      7 C          63.4690   88.3911   12.8122 C.ar    1  UNL1        0.1545
      8 C          64.1647   89.2685   13.8102 C.ar    1  UNL1        0.0744
      9 C          64.1511   90.7583   13.6370 C.ar    1  UNL1        0.1397
     10 O          64.8468   91.6359   14.6351 O.3     1  UNL1       -0.5053
     11 C          63.4419   91.3708   12.4657 C.ar    1  UNL1        0.0735
     12 C          62.7462   90.4934   11.4677 C.ar    1  UNL1        0.1428
     13 O          62.0370   91.1058   10.2964 O.3     1  UNL1       -0.5052
     14 C          62.7598   89.0035   11.6409 C.ar    1  UNL1        0.1104
     15 H          60.9389   86.1412    9.0864 H       1  UNL1        0.2924
     16 H          65.2899   91.2533   15.3667 H       1  UNL1        0.2922
     17 H          62.0286   92.0365   10.1882 H       1  UNL1        0.2922
     18 C          62.8004   84.5337   12.1606 C.ar    1  UNL1        0.0409
     19 C          63.1752   83.6482   11.0094 C.ar    1  UNL1        0.0064
     20 C          63.1887   82.1584   11.1826 C.ar    1  UNL1        0.0399
     21 C          62.8274   81.5540   12.5071 C.ar    1  UNL1        0.1675
     22 O          62.8410   80.0640   12.6803 O.3     1  UNL1       -0.5029
     23 C          62.4527   82.4395   13.6583 C.ar    1  UNL1        0.1676
     24 O          62.0914   81.8351   14.9828 O.3     1  UNL1       -0.5029
     25 C          62.4391   83.9294   13.4851 C.ar    1  UNL1        0.0429
     26 H          63.0751   79.5109   11.9611 H       1  UNL1        0.2923
     27 H          62.0998   80.9044   15.0910 H       1  UNL1        0.2923
@<TRIPOS>BOND
     1     1     2    2
     2     2     3   ar
     3     3     4    1
     4     3     5   ar
     5     5    18    1
     6    18    19   ar
     7    19    20   ar
     8    20    21   ar
     9    21    22    1
    10    21    23   ar
    11    23    24    1
    12    23    25   ar
    13     5     6   ar
    14     6     7   ar
    15     7     8   ar
    16     8     9   ar
    17     9    10    1
    18     9    11   ar
    19    11    12   ar
    20    12    13    1
    21    12    14   ar
    22    14     2   ar
    23    25    18   ar
    24    14     7   ar
    25     4    15    1
    26    22    26    1
    27    24    27    1
    28    10    16    1
    29    13    17    1
@<TRIPOS>MOLECULE
*****
 27 29 0 0 0
SMALL
GASTEIGER

@<TRIPOS>ATOM
      1 O          63.0573   86.0722   12.9552 O.2     1  UNL1       -0.2830
      2 C          63.1018   87.5327   12.6163 C.ar    1  UNL1        0.2379
      3 C          63.9310   88.4697   13.4435 C.ar    1  UNL1        0.2082
      4 O          64.7159   87.9462   14.6097 O.3     1  UNL1       -0.5007
      5 C          63.9754   89.9302   13.1045 C.ar    1  UNL1        0.1819
      6 O          63.1906   90.4538   11.9384 O.2     1  UNL1       -0.4500
      7 C          62.3613   89.5167   11.1111 C.ar    1  UNL1        0.1545
      8 C          61.5765   90.0402    9.9450 C.ar    1  UNL1        0.0744
      9 C          60.7472   89.1032    9.1178 C.ar    1  UNL1        0.1397
     10 O          59.9624   89.6267    7.9515 O.3     1  UNL1       -0.5053
     11 C          60.7028   87.6427    9.4567 C.ar    1  UNL1        0.0735
     12 C          61.4876   87.1192   10.6229 C.ar    1  UNL1        0.1428
     13 O          61.4432   85.6587   10.9618 O.3     1  UNL1       -0.5052
     14 C          62.3169   88.0562   11.4501 C.ar    1  UNL1        0.1104
     15 H          64.6881   87.0339   14.8214 H       1  UNL1        0.2924
     16 H          59.9901   90.5391    7.7398 H       1  UNL1        0.2922
     17 H          60.9252   85.0733   10.4451 H       1  UNL1        0.2922
     18 C          64.8047   90.8673   13.9318 C.ar    1  UNL1        0.0409
     19 C          66.1142   91.3744   13.4046 C.ar    1  UNL1        0.0064
     20 C          66.9435   92.3113   14.2319 C.ar    1  UNL1        0.0399
     21 C          66.4632   92.7412   15.5863 C.ar    1  UNL1        0.1675
     22 O          67.2925   93.6782   16.4136 O.3     1  UNL1       -0.5029
     23 C          65.1537   92.2341   16.1135 C.ar    1  UNL1        0.1676
     24 O          64.6734   92.6640   17.4680 O.3     1  UNL1       -0.5029
     25 C          64.3244   91.2971   15.2863 C.ar    1  UNL1        0.0429
     26 H          68.1105   93.9950   16.0843 H       1  UNL1        0.2923
     27 H          65.1914   93.2493   17.9847 H       1  UNL1        0.2923
@<TRIPOS>BOND
     1     1     2    2
     2     2     3   ar
     3     3     4    1
     4     3     5   ar
     5     5    18    1
     6    18    19   ar
     7    19    20   ar
     8    20    21   ar
     9    21    22    1
    10    21    23   ar
    11    23    24    1
    12    23    25   ar
    13     5     6   ar
    14     6     7   ar
    15     7     8   ar
    16     8     9   ar
    17     9    10    1
    18     9    11   ar
    19    11    12   ar
    20    12    13    1
    21    12    14   ar
    22    14     2   ar
    23    25    18   ar
    24    14     7   ar
    25     4    15    1
    26    22    26    1
    27    24    27    1
    28    10    16    1
    29    13    17    1
@<TRIPOS>MOLECULE
*****
 27 29 0 0 0
SMALL
GASTEIGER

@<TRIPOS>ATOM
      1 O          64.7492   82.9178    9.8590 O.2     1  UNL1       -0.2830
      2 C          63.7129   83.7924   10.5002 C.ar    1  UNL1        0.2379
      3 C          62.9122   84.7444    9.6621 C.ar    1  UNL1        0.2082
      4 O          63.1478   84.8219    8.1827 O.3     1  UNL1       -0.5007
      5 C          61.8759   85.6190   10.3033 C.ar    1  UNL1        0.1819
      6 O          61.6403   85.5416   11.7826 O.2     1  UNL1       -0.4500
      7 C          62.4410   84.5895   12.6208 C.ar    1  UNL1        0.1545
      8 C          62.2054   84.5121   14.1001 C.ar    1  UNL1        0.0744
      9 C          63.0060   83.5600   14.9382 C.ar    1  UNL1        0.1397
     10 O          62.7704   83.4825   16.4176 O.3     1  UNL1       -0.5053
     11 C          64.0424   82.6854   14.2970 C.ar    1  UNL1        0.0735
     12 C          64.2780   82.7629   12.8177 C.ar    1  UNL1        0.1428
     13 O          65.3143   81.8883   12.1765 O.3     1  UNL1       -0.5052
     14 C          63.4773   83.7149   11.9796 C.ar    1  UNL1        0.1104
     15 H          63.7952   84.2756    7.7821 H       1  UNL1        0.2924
     16 H          62.1231   84.0289   16.8182 H       1  UNL1        0.2922
     17 H          65.8145   81.2936   12.7001 H       1  UNL1        0.2922
     18 C          61.0752   86.5711    9.4651 C.ar    1  UNL1        0.0409
     19 C          60.3668   86.0773    8.2386 C.ar    1  UNL1        0.0064
     20 C          59.5662   87.0293    7.4005 C.ar    1  UNL1        0.0399
     21 C          59.4739   88.4752    7.7888 C.ar    1  UNL1        0.1675
     22 O          58.6732   89.4273    6.9506 O.3     1  UNL1       -0.5029
     23 C          60.1823   88.9691    9.0153 C.ar    1  UNL1        0.1676
     24 O          60.0900   90.4150    9.4036 O.3     1  UNL1       -0.5029
     25 C          60.9830   88.0170    9.8534 C.ar    1  UNL1        0.0429
     26 H          58.2307   89.1188    6.1845 H       1  UNL1        0.2923
     27 H          59.5899   91.0097    8.8800 H       1  UNL1        0.2923
@<TRIPOS>BOND
     1     1     2    2
     2     2     3   ar
     3     3     4    1
     4     3     5   ar
     5     5    18    1
     6    18    19   ar
     7    19    20   ar
     8    20    21   ar
     9    21    22    1
    10    21    23   ar
    11    23    24    1
    12    23    25   ar
    13     5     6   ar
    14     6     7   ar
    15     7     8   ar
    16     8     9   ar
    17     9    10    1
    18     9    11   ar
    19    11    12   ar
    20    12    13    1
    21    12    14   ar
    22    14     2   ar
    23    25    18   ar
    24    14     7   ar
    25     4    15    1
    26    22    26    1
    27    24    27    1
    28    10    16    1
    29    13    17    1
@<TRIPOS>MOLECULE
*****
 27 29 0 0 0
SMALL
GASTEIGER

@<TRIPOS>ATOM
      1 O          64.2656   87.3546   14.3006 O.2     1  UNL1       -0.2830
      2 C          63.4908   86.4913   13.3497 C.ar    1  UNL1        0.2379
      3 C          62.7309   87.1168   12.2178 C.ar    1  UNL1        0.2082
      4 O          62.7459   88.6059   12.0368 O.3     1  UNL1       -0.5007
      5 C          61.9561   86.2535   11.2669 C.ar    1  UNL1        0.1819
      6 O          61.9411   84.7645   11.4478 O.2     1  UNL1       -0.4500
      7 C          62.7010   84.1389   12.5798 C.ar    1  UNL1        0.1545
      8 C          62.6860   82.6500   12.7608 C.ar    1  UNL1        0.0744
      9 C          63.4459   82.0244   13.8926 C.ar    1  UNL1        0.1397
     10 O          63.4309   80.5354   14.0737 O.3     1  UNL1       -0.5053
     11 C          64.2207   82.8877   14.8436 C.ar    1  UNL1        0.0735
     12 C          64.2357   84.3767   14.6626 C.ar    1  UNL1        0.1428
     13 O          65.0105   85.2400   15.6135 O.3     1  UNL1       -0.5052
     14 C          63.4758   85.0022   13.5307 C.ar    1  UNL1        0.1104
     15 H          63.2299   89.1452   12.6308 H       1  UNL1        0.2924
     16 H          62.9469   79.9960   13.4797 H       1  UNL1        0.2922
     17 H          65.4852   84.8492   16.3206 H       1  UNL1        0.2922
     18 C          61.1962   86.8791   10.1349 C.ar    1  UNL1        0.0409
     19 C          60.8247   86.0575    8.9363 C.ar    1  UNL1        0.0064
     20 C          60.0648   86.6831    7.8044 C.ar    1  UNL1        0.0399
     21 C          59.6765   88.1305    7.8712 C.ar    1  UNL1        0.1675
     22 O          58.9167   88.7561    6.7393 O.3     1  UNL1       -0.5029
     23 C          60.0481   88.9521    9.0699 C.ar    1  UNL1        0.1676
     24 O          59.6598   90.3995    9.1366 O.3     1  UNL1       -0.5029
     25 C          60.8079   88.3265   10.2017 C.ar    1  UNL1        0.0429
     26 H          58.6846   88.2429    5.9905 H       1  UNL1        0.2923
     27 H          59.1852   90.7903    8.4296 H       1  UNL1        0.2923
@<TRIPOS>BOND
     1     1     2    2
     2     2     3   ar
     3     3     4    1
     4     3     5   ar
     5     5    18    1
     6    18    19   ar
     7    19    20   ar
     8    20    21   ar
     9    21    22    1
    10    21    23   ar
    11    23    24    1
    12    23    25   ar
    13     5     6   ar
    14     6     7   ar
    15     7     8   ar
    16     8     9   ar
    17     9    10    1
    18     9    11   ar
    19    11    12   ar
    20    12    13    1
    21    12    14   ar
    22    14     2   ar
    23    25    18   ar
    24    14     7   ar
    25     4    15    1
    26    22    26    1
    27    24    27    1
    28    10    16    1
    29    13    17    1
@<TRIPOS>MOLECULE
*****
 27 29 0 0 0
SMALL
GASTEIGER

@<TRIPOS>ATOM
      1 O          61.3870   89.6543    9.7249 O.2     1  UNL1       -0.2830
      2 C          62.1791   89.1185   10.8806 C.ar    1  UNL1        0.2379
      3 C          62.8825   90.0629   11.8097 C.ar    1  UNL1        0.2082
      4 O          62.7939   91.5431   11.5833 O.3     1  UNL1       -0.5007
      5 C          63.6746   89.5271   12.9654 C.ar    1  UNL1        0.1819
      6 O          63.7633   88.0470   13.1919 O.2     1  UNL1       -0.4500
      7 C          63.0599   87.1025   12.2627 C.ar    1  UNL1        0.1545
      8 C          63.1485   85.6224   12.4891 C.ar    1  UNL1        0.0744
      9 C          62.4451   84.6781   11.5600 C.ar    1  UNL1        0.1397
     10 O          62.5338   83.1979   11.7864 O.3     1  UNL1       -0.5053
     11 C          61.6530   85.2139   10.4043 C.ar    1  UNL1        0.0735
     12 C          61.5643   86.6940   10.1779 C.ar    1  UNL1        0.1428
     13 O          60.7722   87.2298    9.0222 O.3     1  UNL1       -0.5052
     14 C          62.2678   87.6383   11.1070 C.ar    1  UNL1        0.1104
     15 H          62.2991   91.8778   10.8614 H       1  UNL1        0.2924
     16 H          63.0286   82.8632   12.5083 H       1  UNL1        0.2922
     17 H          60.3328   86.6399    8.4418 H       1  UNL1        0.2922
     18 C          64.3781   90.4715   13.8946 C.ar    1  UNL1        0.0409
     19 C          63.8481   90.6945   15.2799 C.ar    1  UNL1        0.0064
     20 C          64.5515   91.6389   16.2090 C.ar    1  UNL1        0.0399
     21 C          65.7850   92.3602   15.7528 C.ar    1  UNL1        0.1675
     22 O          66.4884   93.3047   16.6820 O.3     1  UNL1       -0.5029
     23 C          66.3150   92.1372   14.3674 C.ar    1  UNL1        0.1676
     24 O          67.5484   92.8586   13.9111 O.3     1  UNL1       -0.5029
     25 C          65.6115   91.1929   13.4383 C.ar    1  UNL1        0.0429
     26 H          66.1573   93.4440   17.5474 H       1  UNL1        0.2923
     27 H          67.9879   93.4486   14.4915 H       1  UNL1        0.2923
@<TRIPOS>BOND
     1     1     2    2
     2     2     3   ar
     3     3     4    1
     4     3     5   ar
     5     5    18    1
     6    18    19   ar
     7    19    20   ar
     8    20    21   ar
     9    21    22    1
    10    21    23   ar
    11    23    24    1
    12    23    25   ar
    13     5     6   ar
    14     6     7   ar
    15     7     8   ar
    16     8     9   ar
    17     9    10    1
    18     9    11   ar
    19    11    12   ar
    20    12    13    1
    21    12    14   ar
    22    14     2   ar
    23    25    18   ar
    24    14     7   ar
    25     4    15    1
    26    22    26    1
    27    24    27    1
    28    10    16    1
    29    13    17    1
@<TRIPOS>MOLECULE
*****
 27 29 0 0 0
SMALL
GASTEIGER

@<TRIPOS>ATOM
      1 O          64.7172   88.0549   15.1613 O.2     1  UNL1       -0.2830
      2 C          64.0402   87.4570   13.9637 C.ar    1  UNL1        0.2379
      3 C          63.8789   85.9695   13.8581 C.ar    1  UNL1        0.2082
      4 O          64.3947   85.0797   14.9501 O.3     1  UNL1       -0.5007
      5 C          63.2019   85.3716   12.6605 C.ar    1  UNL1        0.1819
      6 O          62.6861   86.2613   11.5685 O.2     1  UNL1       -0.4500
      7 C          62.8474   87.7489   11.6741 C.ar    1  UNL1        0.1545
      8 C          62.3316   88.6385   10.5821 C.ar    1  UNL1        0.0744
      9 C          62.4929   90.1261   10.6877 C.ar    1  UNL1        0.1397
     10 O          61.9771   91.0158    9.5957 O.3     1  UNL1       -0.5053
     11 C          63.1699   90.7239   11.8853 C.ar    1  UNL1        0.0735
     12 C          63.6857   89.8343   12.9773 C.ar    1  UNL1        0.1428
     13 O          64.3627   90.4322   14.1749 O.3     1  UNL1       -0.5052
     14 C          63.5244   88.3468   12.8717 C.ar    1  UNL1        0.1104
     15 H          64.8176   85.4532   15.6982 H       1  UNL1        0.2924
     16 H          61.5542   90.6424    8.8476 H       1  UNL1        0.2922
     17 H          64.4634   91.3614   14.2408 H       1  UNL1        0.2922
     18 C          63.0407   83.8840   12.5549 C.ar    1  UNL1        0.0409
     19 C          63.4066   83.1783   11.2829 C.ar    1  UNL1        0.0064
     20 C          63.2453   81.6908   11.1774 C.ar    1  UNL1        0.0399
     21 C          62.7182   80.9089   12.3439 C.ar    1  UNL1        0.1675
     22 O          62.5569   79.4213   12.2383 O.3     1  UNL1       -0.5029
     23 C          62.3522   81.6146   13.6159 C.ar    1  UNL1        0.1676
     24 O          61.8251   80.8327   14.7824 O.3     1  UNL1       -0.5029
     25 C          62.5135   83.1021   13.7214 C.ar    1  UNL1        0.0429
     26 H          62.7855   78.9805   11.4437 H       1  UNL1        0.2923
     27 H          61.7243   79.9035   14.7165 H       1  UNL1        0.2923
@<TRIPOS>BOND
     1     1     2    2
     2     2     3   ar
     3     3     4    1
     4     3     5   ar
     5     5    18    1
     6    18    19   ar
     7    19    20   ar
     8    20    21   ar
     9    21    22    1
    10    21    23   ar
    11    23    24    1
    12    23    25   ar
    13     5     6   ar
    14     6     7   ar
    15     7     8   ar
    16     8     9   ar
    17     9    10    1
    18     9    11   ar
    19    11    12   ar
    20    12    13    1
    21    12    14   ar
    22    14     2   ar
    23    25    18   ar
    24    14     7   ar
    25     4    15    1
    26    22    26    1
    27    24    27    1
    28    10    16    1
    29    13    17    1
@<TRIPOS>MOLECULE
*****
 27 29 0 0 0
SMALL
GASTEIGER

@<TRIPOS>ATOM
      1 O          62.0450   88.1585   10.8723 O.2     1  UNL1       -0.2830
      2 C          62.8975   88.0031   12.0967 C.ar    1  UNL1        0.2379
      3 C          63.5498   89.2046   12.7138 C.ar    1  UNL1        0.2082
      4 O          63.3496   90.5616   12.1066 O.3     1  UNL1       -0.5007
      5 C          64.4024   89.0492   13.9382 C.ar    1  UNL1        0.1819
      6 O          64.6026   87.6923   14.5454 O.2     1  UNL1       -0.4500
      7 C          63.9503   86.4907   13.9282 C.ar    1  UNL1        0.1545
      8 C          64.1506   85.1339   14.5354 C.ar    1  UNL1        0.0744
      9 C          63.4983   83.9324   13.9183 C.ar    1  UNL1        0.1397
     10 O          63.6985   82.5754   14.5255 O.3     1  UNL1       -0.5053
     11 C          62.6457   84.0878   12.6939 C.ar    1  UNL1        0.0735
     12 C          62.4455   85.4447   12.0867 C.ar    1  UNL1        0.1428
     13 O          61.5929   85.6001   10.8624 O.3     1  UNL1       -0.5052
     14 C          63.0978   86.6461   12.7039 C.ar    1  UNL1        0.1104
     15 H          62.8170   90.6587   11.3418 H       1  UNL1        0.2924
     16 H          64.2311   82.4783   15.2903 H       1  UNL1        0.2922
     17 H          61.1855   84.8495   10.4769 H       1  UNL1        0.2922
     18 C          65.0547   90.2508   14.5553 C.ar    1  UNL1        0.0409
     19 C          66.4330   90.6589   14.1269 C.ar    1  UNL1        0.0064
     20 C          67.0852   91.8604   14.7440 C.ar    1  UNL1        0.0399
     21 C          66.3592   92.6538   15.7896 C.ar    1  UNL1        0.1675
     22 O          67.0115   93.8554   16.4068 O.3     1  UNL1       -0.5029
     23 C          64.9808   92.2457   16.2181 C.ar    1  UNL1        0.1676
     24 O          64.2547   93.0391   17.2637 O.3     1  UNL1       -0.5029
     25 C          64.3286   91.0442   15.6009 C.ar    1  UNL1        0.0429
     26 H          67.8725   94.1103   16.1391 H       1  UNL1        0.2923
     27 H          64.6622   93.7897   17.6492 H       1  UNL1        0.2923
@<TRIPOS>BOND
     1     1     2    2
     2     2     3   ar
     3     3     4    1
     4     3     5   ar
     5     5    18    1
     6    18    19   ar
     7    19    20   ar
     8    20    21   ar
     9    21    22    1
    10    21    23   ar
    11    23    24    1
    12    23    25   ar
    13     5     6   ar
    14     6     7   ar
    15     7     8   ar
    16     8     9   ar
    17     9    10    1
    18     9    11   ar
    19    11    12   ar
    20    12    13    1
    21    12    14   ar
    22    14     2   ar
    23    25    18   ar
    24    14     7   ar
    25     4    15    1
    26    22    26    1
    27    24    27    1
    28    10    16    1
    29    13    17    1
@<TRIPOS>MOLECULE
*****
 27 29 0 0 0
SMALL
GASTEIGER

@<TRIPOS>ATOM
      1 O          64.1835   89.2016   13.4946 O.2     1  UNL1       -0.2830
      2 C          63.4056   88.1548   12.7535 C.ar    1  UNL1        0.2379
      3 C          63.4709   86.7216   13.1914 C.ar    1  UNL1        0.2082
      4 O          64.3140   86.3352   14.3704 O.3     1  UNL1       -0.5007
      5 C          62.6931   85.6748   12.4503 C.ar    1  UNL1        0.1819
      6 O          61.8500   86.0611   11.2714 O.2     1  UNL1       -0.4500
      7 C          61.7848   87.4943   10.8334 C.ar    1  UNL1        0.1545
      8 C          60.9417   87.8807    9.6545 C.ar    1  UNL1        0.0744
      9 C          60.8765   89.3138    9.2166 C.ar    1  UNL1        0.1397
     10 O          60.0334   89.7002    8.0376 O.3     1  UNL1       -0.5053
     11 C          61.6543   90.3606    9.9576 C.ar    1  UNL1        0.0735
     12 C          62.4973   89.9743   11.1366 C.ar    1  UNL1        0.1428
     13 O          63.2751   91.0211   11.8777 O.3     1  UNL1       -0.5052
     14 C          62.5626   88.5412   11.5745 C.ar    1  UNL1        0.1104
     15 H          64.7998   86.9891   14.8333 H       1  UNL1        0.2924
     16 H          59.5475   89.0463    7.5746 H       1  UNL1        0.2922
     17 H          63.2344   91.9164   11.6041 H       1  UNL1        0.2922
     18 C          62.7584   84.2416   12.8883 C.ar    1  UNL1        0.0409
     19 C          62.7008   83.8999   14.3477 C.ar    1  UNL1        0.0064
     20 C          62.7660   82.4668   14.7855 C.ar    1  UNL1        0.0399
     21 C          62.8889   81.3753   13.7640 C.ar    1  UNL1        0.1675
     22 O          62.9542   79.9421   14.2019 O.3     1  UNL1       -0.5029
     23 C          62.9465   81.7169   12.3046 C.ar    1  UNL1        0.1676
     24 O          63.0693   80.6254   11.2831 O.3     1  UNL1       -0.5029
     25 C          62.8812   83.1501   11.8667 C.ar    1  UNL1        0.0429
     26 H          62.9182   79.7287   15.1136 H       1  UNL1        0.2923
     27 H          63.1101   79.7302   11.5566 H       1  UNL1        0.2923
@<TRIPOS>BOND
     1     1     2    2
     2     2     3   ar
     3     3     4    1
     4     3     5   ar
     5     5    18    1
     6    18    19   ar
     7    19    20   ar
     8    20    21   ar
     9    21    22    1
    10    21    23   ar
    11    23    24    1
    12    23    25   ar
    13     5     6   ar
    14     6     7   ar
    15     7     8   ar
    16     8     9   ar
    17     9    10    1
    18     9    11   ar
    19    11    12   ar
    20    12    13    1
    21    12    14   ar
    22    14     2   ar
    23    25    18   ar
    24    14     7   ar
    25     4    15    1
    26    22    26    1
    27    24    27    1
    28    10    16    1
    29    13    17    1
