@<TRIPOS>MOLECULE
*****
 23 25 0 0 0
SMALL
GASTEIGER

@<TRIPOS>ATOM
      1 C          64.4703   91.4702   12.2385 C.3     1  UNL1        0.1018
      2 C          65.1436   91.9628   13.4851 C.3     1  UNL1        0.1221
      3 C          66.2445   92.8394   14.0043 C.3     1  UNL1        0.1319
      4 O          67.1908   93.6527   13.1718 O.3     1  UNL1       -0.3827
      5 C          66.2330   92.7598   15.5021 C.3     1  UNL1        0.0525
      6 C          65.1249   91.8341   15.9087 C.3     1  UNL1        0.0976
      7 N          64.4516   91.3415   14.6621 N.am    1  UNL1       -0.2613
      8 C          63.3507   90.4650   14.1429 C.2     1  UNL1        0.3110
      9 O          62.4044   89.6516   14.9754 O.2     1  UNL1       -0.2520
     10 N          63.3622   90.5445   12.6450 N.am    1  UNL1       -0.2433
     11 H          67.3351   94.5138   13.5944 H       1  UNL1        0.2104
     12 C          62.4295   89.8247   11.7167 C.ar    1  UNL1        0.0521
     13 C          61.4840   90.6035   10.8508 C.ar    1  UNL1        0.0154
     14 C          60.5513   89.8837    9.9225 C.ar    1  UNL1        0.0124
     15 C          60.5639   88.3850    9.8600 C.ar    1  UNL1        0.0787
     16 C          61.5093   87.6062   10.7258 C.ar    1  UNL1        0.0645
     17 CL         61.5219   86.1076   10.6633 Cl      1  UNL1       -0.0818
     18 C          62.4421   88.3261   11.6541 C.ar    1  UNL1        0.0031
     19 C          63.3875   87.5472   12.5200 C.3     1  UNL1        0.0332
     20 C          59.6312   87.6652    8.9316 C.1     1  UNL1        0.1013
     21 N          58.6984   86.9454    8.0033 N.1     1  UNL1       -0.1908
     22 C          65.3135   93.2274   10.5206 C.3     1  UNL1        0.0018
     23 C          64.8401   91.8386   10.8323 C.3     1  UNL1        0.0220
@<TRIPOS>BOND
     1    22    23    1
     2     1    23    1
     3     1     2    1
     4     2     3    1
     5     3     4    1
     6     3     5    1
     7     5     6    1
     8     6     7    1
     9     7     8   am
    10     8     9    2
    11     8    10   am
    12    10    12    1
    13    12    13   ar
    14    13    14   ar
    15    14    15   ar
    16    15    20    1
    17    20    21    3
    18    15    16   ar
    19    16    17    1
    20    16    18   ar
    21    18    19    1
    22    10     1    1
    23    18    12   ar
    24     2     7    1
    25     4    11    1
@<TRIPOS>MOLECULE
*****
 23 25 0 0 0
SMALL
GASTEIGER

@<TRIPOS>ATOM
      1 C          63.4142   83.7511   12.2791 C.3     1  UNL1        0.1018
      2 C          62.8777   82.4095   12.6817 C.3     1  UNL1        0.1221
      3 C          62.7948   80.9660   12.2822 C.3     1  UNL1        0.1319
      4 O          63.3923   80.3569   11.0485 O.3     1  UNL1       -0.3827
      5 C          62.0095   80.2387   13.3330 C.3     1  UNL1        0.0525
      6 C          61.6071   81.2325   14.3820 C.3     1  UNL1        0.0976
      7 N          62.1437   82.5742   13.9794 N.am    1  UNL1       -0.2613
      8 C          62.2265   84.0176   14.3789 C.2     1  UNL1        0.3110
      9 O          61.6291   84.6267   15.6126 O.2     1  UNL1       -0.2520
     10 N          63.0118   84.7451   13.3280 N.am    1  UNL1       -0.2433
     11 H          63.7694   79.4901   11.2660 H       1  UNL1        0.2104
     12 C          63.3375   86.2092   13.3264 C.ar    1  UNL1        0.0521
     13 C          64.1892   86.7894   14.4165 C.ar    1  UNL1        0.0154
     14 C          64.5148   88.2535   14.4149 C.ar    1  UNL1        0.0124
     15 C          63.9888   89.1377   13.3232 C.ar    1  UNL1        0.0787
     16 C          63.1372   88.5576   12.2331 C.ar    1  UNL1        0.0645
     17 CL         62.6112   89.4418   11.1415 Cl      1  UNL1       -0.0818
     18 C          62.8115   87.0934   12.2348 C.ar    1  UNL1        0.0031
     19 C          61.9599   86.5133   11.1448 C.3     1  UNL1        0.0332
     20 C          64.3145   90.6019   13.3216 C.1     1  UNL1        0.1013
     21 N          64.6402   92.0662   13.3200 N.1     1  UNL1       -0.1908
     22 C          63.7239   83.5809    9.7052 C.3     1  UNL1        0.0018
     23 C          64.2130   84.0470   11.0444 C.3     1  UNL1        0.0220
@<TRIPOS>BOND
     1    22    23    1
     2     1    23    1
     3     1     2    1
     4     2     3    1
     5     3     4    1
     6     3     5    1
     7     5     6    1
     8     6     7    1
     9     7     8   am
    10     8     9    2
    11     8    10   am
    12    10    12    1
    13    12    13   ar
    14    13    14   ar
    15    14    15   ar
    16    15    20    1
    17    20    21    3
    18    15    16   ar
    19    16    17    1
    20    16    18   ar
    21    18    19    1
    22    10     1    1
    23    18    12   ar
    24     2     7    1
    25     4    11    1
@<TRIPOS>MOLECULE
*****
 23 25 0 0 0
SMALL
GASTEIGER

@<TRIPOS>ATOM
      1 C          62.7762   86.8646   12.0308 C.3     1  UNL1        0.1018
      2 C          63.1775   88.0923   12.7936 C.3     1  UNL1        0.1221
      3 C          63.0252   89.5830   12.8609 C.3     1  UNL1        0.1319
      4 O          62.2138   90.4295   11.9254 O.3     1  UNL1       -0.3827
      5 C          63.8268   90.0786   14.0279 C.3     1  UNL1        0.0525
      6 C          64.4744   88.8941   14.6818 C.3     1  UNL1        0.0976
      7 N          64.0731   87.6665   13.9190 N.am    1  UNL1       -0.2613
      8 C          64.2254   86.1758   13.8517 C.2     1  UNL1        0.3110
      9 O          65.0368   85.3293   14.7872 O.2     1  UNL1       -0.2520
     10 N          63.4238   85.6801   12.6847 N.am    1  UNL1       -0.2433
     11 H          61.7554   91.1200   12.4294 H       1  UNL1        0.2104
     12 C          63.2929   84.2511   12.2483 C.ar    1  UNL1        0.0521
     13 C          63.8449   83.8182   10.9224 C.ar    1  UNL1        0.0154
     14 C          63.7139   82.3891   10.4860 C.ar    1  UNL1        0.0124
     15 C          63.0310   81.3928   11.3755 C.ar    1  UNL1        0.0787
     16 C          62.4790   81.8257   12.7014 C.ar    1  UNL1        0.0645
     17 CL         61.7962   80.8294   13.5908 Cl      1  UNL1       -0.0818
     18 C          62.6100   83.2548   13.1377 C.ar    1  UNL1        0.0031
     19 C          62.0580   83.6877   14.4636 C.3     1  UNL1        0.0332
     20 C          62.9001   79.9637   10.9391 C.1     1  UNL1        0.1013
     21 N          62.7692   78.5345   10.5026 N.1     1  UNL1       -0.1908
     22 C          62.1362   87.7589    9.6769 C.3     1  UNL1        0.0018
     23 C          61.8839   86.8279   10.8256 C.3     1  UNL1        0.0220
@<TRIPOS>BOND
     1    22    23    1
     2     1    23    1
     3     1     2    1
     4     2     3    1
     5     3     4    1
     6     3     5    1
     7     5     6    1
     8     6     7    1
     9     7     8   am
    10     8     9    2
    11     8    10   am
    12    10    12    1
    13    12    13   ar
    14    13    14   ar
    15    14    15   ar
    16    15    20    1
    17    20    21    3
    18    15    16   ar
    19    16    17    1
    20    16    18   ar
    21    18    19    1
    22    10     1    1
    23    18    12   ar
    24     2     7    1
    25     4    11    1
@<TRIPOS>MOLECULE
*****
 23 25 0 0 0
SMALL
GASTEIGER

@<TRIPOS>ATOM
      1 C          61.7001   87.0255   10.7368 C.3     1  UNL1        0.1018
      2 C          61.9281   88.5078   10.7108 C.3     1  UNL1        0.1221
      3 C          61.5661   89.7791   10.0017 C.3     1  UNL1        0.1319
      4 O          60.6364   89.9016    8.8309 O.3     1  UNL1       -0.3827
      5 C          62.2969   90.9063   10.6689 C.3     1  UNL1        0.0525
      6 C          63.1106   90.3317   11.7904 C.3     1  UNL1        0.0976
      7 N          62.8826   88.8494   11.8163 N.am    1  UNL1       -0.2613
      8 C          63.2446   87.5782   12.5255 C.2     1  UNL1        0.3110
      9 O          64.1742   87.4557   13.6963 O.2     1  UNL1       -0.2520
     10 N          62.5137   86.4509   11.8583 N.am    1  UNL1       -0.2433
     11 H          60.0880   90.6948    8.9351 H       1  UNL1        0.2104
     12 C          62.5842   85.0033   12.2447 C.ar    1  UNL1        0.0521
     13 C          62.1875   84.5757   13.6267 C.ar    1  UNL1        0.0154
     14 C          62.2579   83.1281   14.0132 C.ar    1  UNL1        0.0124
     15 C          62.7251   82.1079   13.0176 C.ar    1  UNL1        0.0787
     16 C          63.1218   82.5354   11.6356 C.ar    1  UNL1        0.0645
     17 CL         63.5889   81.5153   10.6401 Cl      1  UNL1       -0.0818
     18 C          63.0513   83.9831   11.2492 C.ar    1  UNL1        0.0031
     19 C          63.4480   84.4106    9.8672 C.3     1  UNL1        0.0332
     20 C          62.7955   80.6603   13.4041 C.1     1  UNL1        0.1013
     21 N          62.8660   79.2126   13.7906 N.1     1  UNL1       -0.1908
     22 C          60.9405   86.4410    8.3220 C.3     1  UNL1        0.0018
     23 C          60.8140   86.2533    9.8048 C.3     1  UNL1        0.0220
@<TRIPOS>BOND
     1    22    23    1
     2     1    23    1
     3     1     2    1
     4     2     3    1
     5     3     4    1
     6     3     5    1
     7     5     6    1
     8     6     7    1
     9     7     8   am
    10     8     9    2
    11     8    10   am
    12    10    12    1
    13    12    13   ar
    14    13    14   ar
    15    14    15   ar
    16    15    20    1
    17    20    21    3
    18    15    16   ar
    19    16    17    1
    20    16    18   ar
    21    18    19    1
    22    10     1    1
    23    18    12   ar
    24     2     7    1
    25     4    11    1
@<TRIPOS>MOLECULE
*****
 23 25 0 0 0
SMALL
GASTEIGER

@<TRIPOS>ATOM
      1 C          63.8665   90.9209   14.2737 C.3     1  UNL1        0.1018
      2 C          64.9670   91.8229   14.7483 C.3     1  UNL1        0.1221
      3 C          65.6040   92.4224   15.9668 C.3     1  UNL1        0.1319
      4 O          65.1732   92.2010   17.3864 O.3     1  UNL1       -0.3827
      5 C          66.7476   93.2823   15.5163 C.3     1  UNL1        0.0525
      6 C          66.8173   93.2141   14.0195 C.3     1  UNL1        0.0976
      7 N          65.7168   92.3121   13.5448 N.am    1  UNL1       -0.2613
      8 C          65.0797   91.7126   12.3264 C.2     1  UNL1        0.3110
      9 O          65.5105   91.9340   10.9067 O.2     1  UNL1       -0.2520
     10 N          63.9361   90.8527   12.7768 N.am    1  UNL1       -0.2433
     11 H          65.9563   92.1102   17.9515 H       1  UNL1        0.2104
     12 C          63.0226   90.0633   11.8867 C.ar    1  UNL1        0.0521
     13 C          62.1879   90.7652   10.8568 C.ar    1  UNL1        0.0154
     14 C          61.2745   89.9759    9.9667 C.ar    1  UNL1        0.0124
     15 C          61.1956   88.4844   10.1065 C.ar    1  UNL1        0.0787
     16 C          62.0302   87.7824   11.1364 C.ar    1  UNL1        0.0645
     17 CL         61.9512   86.2910   11.2761 Cl      1  UNL1       -0.0818
     18 C          62.9437   88.5719   12.0265 C.ar    1  UNL1        0.0031
     19 C          63.7783   87.8699   13.0563 C.3     1  UNL1        0.0332
     20 C          60.2820   87.6950    9.2164 C.1     1  UNL1        0.1013
     21 N          59.3685   86.9056    8.3262 N.1     1  UNL1       -0.1908
     22 C          63.3365   89.4509   16.3493 C.3     1  UNL1        0.0018
     23 C          62.8710   90.2115   15.1432 C.3     1  UNL1        0.0220
@<TRIPOS>BOND
     1    22    23    1
     2     1    23    1
     3     1     2    1
     4     2     3    1
     5     3     4    1
     6     3     5    1
     7     5     6    1
     8     6     7    1
     9     7     8   am
    10     8     9    2
    11     8    10   am
    12    10    12    1
    13    12    13   ar
    14    13    14   ar
    15    14    15   ar
    16    15    20    1
    17    20    21    3
    18    15    16   ar
    19    16    17    1
    20    16    18   ar
    21    18    19    1
    22    10     1    1
    23    18    12   ar
    24     2     7    1
    25     4    11    1
@<TRIPOS>MOLECULE
*****
 23 25 0 0 0
SMALL
GASTEIGER

@<TRIPOS>ATOM
      1 C          63.2972   87.6774   12.5929 C.3     1  UNL1        0.1018
      2 C          62.9413   88.9276   11.8445 C.3     1  UNL1        0.1221
      3 C          63.1703   90.4085   11.7774 C.3     1  UNL1        0.1319
      4 O          64.0497   91.2071   12.6934 O.3     1  UNL1       -0.3827
      5 C          62.3655   90.9506   10.6336 C.3     1  UNL1        0.0525
      6 C          61.6391   89.8048    9.9937 C.3     1  UNL1        0.0976
      7 N          61.9950   88.5545   10.7421 N.am    1  UNL1       -0.2613
      8 C          61.7660   87.0736   10.8092 C.2     1  UNL1        0.3110
      9 O          60.8866   86.2750    9.8933 O.2     1  UNL1       -0.2520
     10 N          62.5709   86.5314   11.9531 N.am    1  UNL1       -0.2433
     11 H          64.5305   91.8746   12.1794 H       1  UNL1        0.2104
     12 C          62.6376   85.0956   12.3818 C.ar    1  UNL1        0.0521
     13 C          62.3311   84.7218   13.8019 C.ar    1  UNL1        0.0154
     14 C          62.3979   83.2860   14.2306 C.ar    1  UNL1        0.0124
     15 C          62.7710   82.2238   13.2392 C.ar    1  UNL1        0.0787
     16 C          63.0775   82.5976   11.8192 C.ar    1  UNL1        0.0645
     17 CL         63.4506   81.5354   10.8280 Cl      1  UNL1       -0.0818
     18 C          63.0107   84.0335   11.3906 C.ar    1  UNL1        0.0031
     19 C          63.3171   84.4072    9.9706 C.3     1  UNL1        0.0332
     20 C          62.8377   80.7880   13.6680 C.1     1  UNL1        0.1013
     21 N          62.9044   79.3521   14.0968 N.1     1  UNL1       -0.1908
     22 C          64.1611   88.6326   14.8493 C.3     1  UNL1        0.0018
     23 C          64.2178   87.5885   13.7738 C.3     1  UNL1        0.0220
@<TRIPOS>BOND
     1    22    23    1
     2     1    23    1
     3     1     2    1
     4     2     3    1
     5     3     4    1
     6     3     5    1
     7     5     6    1
     8     6     7    1
     9     7     8   am
    10     8     9    2
    11     8    10   am
    12    10    12    1
    13    12    13   ar
    14    13    14   ar
    15    14    15   ar
    16    15    20    1
    17    20    21    3
    18    15    16   ar
    19    16    17    1
    20    16    18   ar
    21    18    19    1
    22    10     1    1
    23    18    12   ar
    24     2     7    1
    25     4    11    1
@<TRIPOS>MOLECULE
*****
 23 25 0 0 0
SMALL
GASTEIGER

@<TRIPOS>ATOM
      1 C          66.5965   91.6528   12.9749 C.3     1  UNL1        0.1018
      2 C          67.2371   92.1113   14.2514 C.3     1  UNL1        0.1221
      3 C          68.5254   92.5742   14.8647 C.3     1  UNL1        0.1319
      4 O          69.8354   92.7308   14.1510 O.3     1  UNL1       -0.3827
      5 C          68.2735   92.8530   16.3168 C.3     1  UNL1        0.0525
      6 C          66.8297   92.5625   16.6011 C.3     1  UNL1        0.0976
      7 N          66.1891   92.1040   15.3246 N.am    1  UNL1       -0.2613
      8 C          64.9008   91.6411   14.7113 C.2     1  UNL1        0.3110
      9 O          63.5908   91.4845   15.4250 O.2     1  UNL1       -0.2520
     10 N          65.1526   91.3622   13.2591 N.am    1  UNL1       -0.2433
     11 H          70.2780   93.5365   14.4607 H       1  UNL1        0.2104
     12 C          64.1386   90.8778   12.2656 C.ar    1  UNL1        0.0521
     13 C          63.7328   91.7560   11.1192 C.ar    1  UNL1        0.0154
     14 C          62.7189   91.2716   10.1257 C.ar    1  UNL1        0.0124
     15 C          62.1105   89.9090   10.2786 C.ar    1  UNL1        0.0787
     16 C          62.5163   89.0308   11.4249 C.ar    1  UNL1        0.0645
     17 CL         61.9080   87.6682   11.5777 Cl      1  UNL1       -0.0818
     18 C          63.5304   89.5152   12.4184 C.ar    1  UNL1        0.0031
     19 C          63.9361   88.6371   13.5648 C.3     1  UNL1        0.0332
     20 C          61.0965   89.4246    9.2850 C.1     1  UNL1        0.1013
     21 N          60.0825   88.9402    8.2915 N.1     1  UNL1       -0.1908
     22 C          67.2129   92.6246   10.6456 C.3     1  UNL1        0.0018
     23 C          67.2798   91.5100   11.6473 C.3     1  UNL1        0.0220
@<TRIPOS>BOND
     1    22    23    1
     2     1    23    1
     3     1     2    1
     4     2     3    1
     5     3     4    1
     6     3     5    1
     7     5     6    1
     8     6     7    1
     9     7     8   am
    10     8     9    2
    11     8    10   am
    12    10    12    1
    13    12    13   ar
    14    13    14   ar
    15    14    15   ar
    16    15    20    1
    17    20    21    3
    18    15    16   ar
    19    16    17    1
    20    16    18   ar
    21    18    19    1
    22    10     1    1
    23    18    12   ar
    24     2     7    1
    25     4    11    1
@<TRIPOS>MOLECULE
*****
 23 25 0 0 0
SMALL
GASTEIGER

@<TRIPOS>ATOM
      1 C          62.3890   83.7838   13.9580 C.3     1  UNL1        0.1018
      2 C          62.3996   82.3721   13.4511 C.3     1  UNL1        0.1221
      3 C          61.9039   80.9822   13.7205 C.3     1  UNL1        0.1319
      4 O          61.0459   80.5608   14.8764 O.3     1  UNL1       -0.3827
      5 C          62.4168   80.0879   12.6310 C.3     1  UNL1        0.0525
      6 C          63.2295   80.9249   11.6882 C.3     1  UNL1        0.0976
      7 N          63.2189   82.3367   12.1951 N.am    1  UNL1       -0.2613
      8 C          63.7147   83.7265   11.9257 C.2     1  UNL1        0.3110
      9 O          64.5727   84.1480   10.7698 O.2     1  UNL1       -0.2520
     10 N          63.2018   84.6209   13.0152 N.am    1  UNL1       -0.2433
     11 H          60.3819   79.9231   14.5707 H       1  UNL1        0.2104
     12 C          63.4568   86.0937   13.1401 C.ar    1  UNL1        0.0521
     13 C          64.2630   86.6205   14.2902 C.ar    1  UNL1        0.0154
     14 C          64.5180   88.0933   14.4150 C.ar    1  UNL1        0.0124
     15 C          63.9669   89.0395   13.3898 C.ar    1  UNL1        0.0787
     16 C          63.1607   88.5128   12.2397 C.ar    1  UNL1        0.0645
     17 CL         62.6096   89.4590   11.2145 Cl      1  UNL1       -0.0818
     18 C          62.9057   87.0399   12.1149 C.ar    1  UNL1        0.0031
     19 C          62.0995   86.5132   10.9649 C.3     1  UNL1        0.0332
     20 C          64.2219   90.5124   13.5146 C.1     1  UNL1        0.1013
     21 N          64.4770   91.9853   13.6395 N.1     1  UNL1       -0.1908
     22 C          62.4848   84.8175   16.3396 C.3     1  UNL1        0.0018
     23 C          61.6886   84.2726   15.1910 C.3     1  UNL1        0.0220
@<TRIPOS>BOND
     1    22    23    1
     2     1    23    1
     3     1     2    1
     4     2     3    1
     5     3     4    1
     6     3     5    1
     7     5     6    1
     8     6     7    1
     9     7     8   am
    10     8     9    2
    11     8    10   am
    12    10    12    1
    13    12    13   ar
    14    13    14   ar
    15    14    15   ar
    16    15    20    1
    17    20    21    3
    18    15    16   ar
    19    16    17    1
    20    16    18   ar
    21    18    19    1
    22    10     1    1
    23    18    12   ar
    24     2     7    1
    25     4    11    1
@<TRIPOS>MOLECULE
*****
 23 25 0 0 0
SMALL
GASTEIGER

@<TRIPOS>ATOM
      1 C          62.8784   88.9716   11.4043 C.3     1  UNL1        0.1018
      2 C          63.2986   89.2637   12.8143 C.3     1  UNL1        0.1221
      3 C          63.6104   90.3646   13.7842 C.3     1  UNL1        0.1319
      4 O          63.5624   91.8354   13.4938 O.3     1  UNL1       -0.3827
      5 C          63.9786   89.7364   15.0956 C.3     1  UNL1        0.0525
      6 C          63.8944   88.2472   14.9362 C.3     1  UNL1        0.0976
      7 N          63.4742   87.9551   13.5262 N.am    1  UNL1       -0.2613
      8 C          63.1624   86.8542   12.5562 C.2     1  UNL1        0.3110
      9 O          63.2104   85.3834   12.8467 O.2     1  UNL1       -0.2520
     10 N          62.7942   87.4824   11.2448 N.am    1  UNL1       -0.2433
     11 H          63.1818   92.3028   14.2538 H       1  UNL1        0.2104
     12 C          62.4093   86.7501    9.9936 C.ar    1  UNL1        0.0521
     13 C          63.4044   85.8606    9.3089 C.ar    1  UNL1        0.0154
     14 C          63.0196   85.1283    8.0578 C.ar    1  UNL1        0.0124
     15 C          61.6395   85.2854    7.4911 C.ar    1  UNL1        0.0787
     16 C          60.6445   86.1749    8.1757 C.ar    1  UNL1        0.0645
     17 CL         59.2645   86.3319    7.6091 Cl      1  UNL1       -0.0818
     18 C          61.0294   86.9072    9.4270 C.ar    1  UNL1        0.0031
     19 C          60.0343   87.7967   10.1115 C.3     1  UNL1        0.0332
     20 C          61.2547   84.5530    6.2399 C.1     1  UNL1        0.1013
     21 N          60.8699   83.8207    4.9887 N.1     1  UNL1       -0.1908
     22 C          63.4172   91.2399   10.2580 C.3     1  UNL1        0.0018
     23 C          62.5925   89.9898   10.3406 C.3     1  UNL1        0.0220
@<TRIPOS>BOND
     1    22    23    1
     2     1    23    1
     3     1     2    1
     4     2     3    1
     5     3     4    1
     6     3     5    1
     7     5     6    1
     8     6     7    1
     9     7     8   am
    10     8     9    2
    11     8    10   am
    12    10    12    1
    13    12    13   ar
    14    13    14   ar
    15    14    15   ar
    16    15    20    1
    17    20    21    3
    18    15    16   ar
    19    16    17    1
    20    16    18   ar
    21    18    19    1
    22    10     1    1
    23    18    12   ar
    24     2     7    1
    25     4    11    1
