@<TRIPOS>MOLECULE
*****
 26 28 0 0 0
SMALL
GASTEIGER

@<TRIPOS>ATOM
      1 C          63.5312   90.8738   12.4509 C.3     1  UNL1        0.0509
      2 C          64.6711   91.8041   12.1590 C.3     1  UNL1        0.0091
      3 C          65.5913   92.2324   13.2634 C.3     1  UNL1        0.0175
      4 C          66.7313   93.1627   12.9715 C.3     1  UNL1        0.0686
      5 N          66.9509   93.6648   11.5752 N.3     1  UNL1       -0.2975
      6 C          66.0306   93.2365   10.4708 C.3     1  UNL1        0.0686
      7 C          64.8907   92.3062   10.7627 C.3     1  UNL1        0.0175
      8 H          67.8910   93.3771   11.3033 H       1  UNL1        0.1232
      9 C          63.5302   90.0613   13.7118 C.ar    1  UNL1        0.0546
     10 C          64.0717   88.6709   13.8651 C.ar    1  UNL1        0.1131
     11 N          63.8637   88.2468   15.2888 N.ar    1  UNL1       -0.2229
     12 C          63.1938   89.3752   16.0154 C.ar    1  UNL1        0.1748
     13 N          62.9877   90.4966   15.0408 N.ar    1  UNL1       -0.3382
     14 H          62.5697   91.3658   15.2386 H       1  UNL1        0.1672
     15 C          62.3923   90.7560   11.4819 C.3     1  UNL1        0.0680
     16 S          61.4075   89.6324   11.6150 S.3     1  UNL1       -0.1133
     17 C          61.1719   86.4582    8.4340 C.ar    1  UNL1        0.0715
     18 C          60.1713   87.5754    8.4542 C.ar    1  UNL1        0.0044
     19 C          60.2498   88.6335    9.5146 C.ar    1  UNL1        0.0061
     20 C          61.3290   88.5744   10.5546 C.ar    1  UNL1        0.0252
     21 C          62.3297   87.4572   10.5344 C.ar    1  UNL1        0.0061
     22 C          62.2512   86.3991    9.4740 C.ar    1  UNL1        0.0044
     23 F          61.0149   84.3421    6.3133 F       1  UNL1       -0.1659
     24 C          61.0934   85.4002    7.3736 C.3     1  UNL1        0.4186
     25 F          62.5741   85.1846    7.4790 F       1  UNL1       -0.1659
     26 F          59.6127   85.6157    7.2682 F       1  UNL1       -0.1659
@<TRIPOS>BOND
     1    23    24    1
     2    24    25    1
     3    24    26    1
     4    24    17    1
     5    17    18   ar
     6    18    19   ar
     7    19    20   ar
     8    20    16    1
     9    16    15    1
    10    15     1    1
    11     1     9    1
    12     9    10   ar
    13    10    11   ar
    14    11    12   ar
    15    12    13   ar
    16     1     2    1
    17     2     3    1
    18     3     4    1
    19     4     5    1
    20     5     6    1
    21     6     7    1
    22    20    21   ar
    23    21    22   ar
    24    22    17   ar
    25    13     9   ar
    26     7     2    1
    27    13    14    1
    28     5     8    1
@<TRIPOS>MOLECULE
*****
 26 28 0 0 0
SMALL
GASTEIGER

@<TRIPOS>ATOM
      1 C          64.2841   90.5767   13.4000 C.3     1  UNL1        0.0509
      2 C          63.9917   89.5255   14.4294 C.3     1  UNL1        0.0091
      3 C          64.3459   88.0930   14.1600 C.3     1  UNL1        0.0175
      4 C          64.0536   87.0418   15.1893 C.3     1  UNL1        0.0686
      5 N          63.4069   87.4230   16.4880 N.3     1  UNL1       -0.2975
      6 C          63.0527   88.8556   16.7573 C.3     1  UNL1        0.0686
      7 C          63.3450   89.9067   15.7280 C.3     1  UNL1        0.0175
      8 H          64.0433   87.1325   17.2303 H       1  UNL1        0.1232
      9 C          65.3729   91.5799   13.6409 C.ar    1  UNL1        0.0546
     10 C          65.7107   92.7438   12.7570 C.ar    1  UNL1        0.1131
     11 N          66.8617   93.4785   13.3777 N.ar    1  UNL1       -0.2229
     12 C          67.2354   92.7686   14.6452 C.ar    1  UNL1        0.1748
     13 N          66.3153   91.5953   14.8078 N.ar    1  UNL1       -0.3382
     14 H          66.3276   90.9487   15.5502 H       1  UNL1        0.1672
     15 C          63.4875   90.6248   12.1299 C.3     1  UNL1        0.0680
     16 S          62.0989   90.0589   12.0936 S.3     1  UNL1       -0.1133
     17 C          60.9824   87.0361    8.9526 C.ar    1  UNL1        0.0715
     18 C          60.3650   88.4029    8.9312 C.ar    1  UNL1        0.0044
     19 C          60.7371   89.4105    9.9782 C.ar    1  UNL1        0.0061
     20 C          61.7267   89.0513   11.0466 C.ar    1  UNL1        0.0252
     21 C          62.3442   87.6845   11.0680 C.ar    1  UNL1        0.0061
     22 C          61.9720   86.6769   10.0210 C.ar    1  UNL1        0.0044
     23 F          60.2381   85.0209    6.8586 F       1  UNL1       -0.1659
     24 C          60.6102   86.0285    7.9056 C.3     1  UNL1        0.4186
     25 F          62.0478   85.6156    7.7919 F       1  UNL1       -0.1659
     26 F          59.1727   86.4413    8.0193 F       1  UNL1       -0.1659
@<TRIPOS>BOND
     1    23    24    1
     2    24    25    1
     3    24    26    1
     4    24    17    1
     5    17    18   ar
     6    18    19   ar
     7    19    20   ar
     8    20    16    1
     9    16    15    1
    10    15     1    1
    11     1     9    1
    12     9    10   ar
    13    10    11   ar
    14    11    12   ar
    15    12    13   ar
    16     1     2    1
    17     2     3    1
    18     3     4    1
    19     4     5    1
    20     5     6    1
    21     6     7    1
    22    20    21   ar
    23    21    22   ar
    24    22    17   ar
    25    13     9   ar
    26     7     2    1
    27    13    14    1
    28     5     8    1
@<TRIPOS>MOLECULE
*****
 26 28 0 0 0
SMALL
GASTEIGER

@<TRIPOS>ATOM
      1 C          64.1835   90.4907   13.4668 C.3     1  UNL1        0.0509
      2 C          65.2926   91.4858   13.6394 C.3     1  UNL1        0.0091
      3 C          66.2705   91.3312   14.7662 C.3     1  UNL1        0.0175
      4 C          67.3795   92.3263   14.9388 C.3     1  UNL1        0.0686
      5 N          67.5107   93.4761   13.9845 N.3     1  UNL1       -0.2975
      6 C          66.5328   93.6308   12.8576 C.3     1  UNL1        0.0686
      7 C          65.4238   92.6356   12.6850 C.3     1  UNL1        0.0175
      8 H          68.4368   93.4047   13.5630 H       1  UNL1        0.1232
      9 C          63.8521   89.5372   14.5763 C.ar    1  UNL1        0.0546
     10 C          64.2052   88.0801   14.6214 C.ar    1  UNL1        0.1131
     11 N          63.6807   87.5157   15.9084 N.ar    1  UNL1       -0.2229
     12 C          63.0033   88.6241   16.6587 C.ar    1  UNL1        0.1748
     13 N          63.1093   89.8734   15.8353 N.ar    1  UNL1       -0.3382
     14 H          62.7537   90.7586   16.0786 H       1  UNL1        0.1672
     15 C          63.4060   90.4491   12.1848 C.3     1  UNL1        0.0680
     16 S          62.0536   89.8014   12.1485 S.3     1  UNL1       -0.1133
     17 C          61.0544   86.8595    8.8932 C.ar    1  UNL1        0.0715
     18 C          60.4496   88.2320    8.8752 C.ar    1  UNL1        0.0044
     19 C          60.7827   89.2127    9.9603 C.ar    1  UNL1        0.0061
     20 C          61.7205   88.8207   11.0634 C.ar    1  UNL1        0.0252
     21 C          62.3252   87.4482   11.0814 C.ar    1  UNL1        0.0061
     22 C          61.9921   86.4676    9.9964 C.ar    1  UNL1        0.0044
     23 F          60.3882   84.8982    6.7231 F       1  UNL1       -0.1659
     24 C          60.7213   85.8788    7.8082 C.3     1  UNL1        0.4186
     25 F          59.2716   86.2474    7.9201 F       1  UNL1       -0.1659
     26 F          62.1710   85.5103    7.6962 F       1  UNL1       -0.1659
@<TRIPOS>BOND
     1    23    24    1
     2    24    25    1
     3    24    26    1
     4    24    17    1
     5    17    18   ar
     6    18    19   ar
     7    19    20   ar
     8    20    16    1
     9    16    15    1
    10    15     1    1
    11     1     9    1
    12     9    10   ar
    13    10    11   ar
    14    11    12   ar
    15    12    13   ar
    16     1     2    1
    17     2     3    1
    18     3     4    1
    19     4     5    1
    20     5     6    1
    21     6     7    1
    22    20    21   ar
    23    21    22   ar
    24    22    17   ar
    25    13     9   ar
    26     7     2    1
    27    13    14    1
    28     5     8    1
@<TRIPOS>MOLECULE
*****
 26 28 0 0 0
SMALL
GASTEIGER

@<TRIPOS>ATOM
      1 C          61.3479   87.6795   10.1686 C.3     1  UNL1        0.0509
      2 C          62.0847   86.3753   10.2462 C.3     1  UNL1        0.0091
      3 C          62.6684   85.7686    9.0047 C.3     1  UNL1        0.0175
      4 C          63.4052   84.4643    9.0823 C.3     1  UNL1        0.0686
      5 N          63.5584   83.7667   10.4013 N.3     1  UNL1       -0.2975
      6 C          62.9746   84.3734   11.6428 C.3     1  UNL1        0.0686
      7 C          62.2378   85.6777   11.5652 C.3     1  UNL1        0.0175
      8 H          64.5598   83.6650   10.5661 H       1  UNL1        0.1232
      9 C          60.3896   87.9338    9.0430 C.ar    1  UNL1        0.0546
     10 C          59.4014   86.9515    8.4875 C.ar    1  UNL1        0.1131
     11 N          58.6523   87.6256    7.3764 N.ar    1  UNL1       -0.2229
     12 C          59.1775   89.0246    7.2452 C.ar    1  UNL1        0.1748
     13 N          60.2512   89.2150    8.2752 N.ar    1  UNL1       -0.3382
     14 H          60.7734   90.0366    8.4217 H       1  UNL1        0.1672
     15 C          61.5693   88.7295   11.2167 C.3     1  UNL1        0.0680
     16 S          62.4710   89.8941   10.9328 S.3     1  UNL1       -0.1133
     17 C          65.4337   91.2543   14.0348 C.ar    1  UNL1        0.0715
     18 C          65.2458   92.0501   12.7773 C.ar    1  UNL1        0.0044
     19 C          64.2582   91.5967   11.7433 C.ar    1  UNL1        0.0061
     20 C          63.4586   90.3475   11.9668 C.ar    1  UNL1        0.0252
     21 C          63.6465   89.5517   13.2243 C.ar    1  UNL1        0.0061
     22 C          64.6341   90.0051   14.2583 C.ar    1  UNL1        0.0044
     23 F          67.4089   92.1611   16.1027 F       1  UNL1       -0.1659
     24 C          66.4213   91.7077   15.0687 C.3     1  UNL1        0.4186
     25 F          67.5462   91.4303   14.1160 F       1  UNL1       -0.1659
     26 F          65.2965   91.9852   16.0215 F       1  UNL1       -0.1659
@<TRIPOS>BOND
     1    23    24    1
     2    24    25    1
     3    24    26    1
     4    24    17    1
     5    17    18   ar
     6    18    19   ar
     7    19    20   ar
     8    20    16    1
     9    16    15    1
    10    15     1    1
    11     1     9    1
    12     9    10   ar
    13    10    11   ar
    14    11    12   ar
    15    12    13   ar
    16     1     2    1
    17     2     3    1
    18     3     4    1
    19     4     5    1
    20     5     6    1
    21     6     7    1
    22    20    21   ar
    23    21    22   ar
    24    22    17   ar
    25    13     9   ar
    26     7     2    1
    27    13    14    1
    28     5     8    1
@<TRIPOS>MOLECULE
*****
 26 28 0 0 0
SMALL
GASTEIGER

@<TRIPOS>ATOM
      1 C          61.9036   86.6663   10.8165 C.3     1  UNL1        0.0509
      2 C          61.7383   86.1221    9.4284 C.3     1  UNL1        0.0091
      3 C          62.8970   85.4676    8.7364 C.3     1  UNL1        0.0175
      4 C          62.7316   84.9234    7.3484 C.3     1  UNL1        0.0686
      5 N          61.4075   85.0338    6.6524 N.3     1  UNL1       -0.2975
      6 C          60.2487   85.6884    7.3444 C.3     1  UNL1        0.0686
      7 C          60.4141   86.2325    8.7324 C.3     1  UNL1        0.0175
      8 H          61.1152   84.0839    6.4232 H       1  UNL1        0.1232
      9 C          62.5613   85.8322   11.8756 C.ar    1  UNL1        0.0546
     10 C          62.5748   84.3335   11.9356 C.ar    1  UNL1        0.1131
     11 N          63.3428   83.9254   13.1578 N.ar    1  UNL1       -0.2229
     12 C          63.8040   85.1720   13.8531 C.ar    1  UNL1        0.1748
     13 N          63.3210   86.3504   13.0606 N.ar    1  UNL1       -0.3382
     14 H          63.4755   87.2977   13.2798 H       1  UNL1        0.1672
     15 C          61.4113   88.0445   11.1453 C.3     1  UNL1        0.0680
     16 S          61.9543   89.2311   10.4058 S.3     1  UNL1       -0.1133
     17 C          64.9388   91.9491   12.3947 C.ar    1  UNL1        0.0715
     18 C          64.5553   92.1765   10.9625 C.ar    1  UNL1        0.0044
     19 C          63.5604   91.2705   10.2995 C.ar    1  UNL1        0.0061
     20 C          62.9491   90.1371   11.0688 C.ar    1  UNL1        0.0252
     21 C          63.3326   89.9097   12.5009 C.ar    1  UNL1        0.0061
     22 C          64.3274   90.8157   13.1639 C.ar    1  UNL1        0.0044
     23 F          66.9284   93.7610   13.7206 F       1  UNL1       -0.1659
     24 C          65.9336   92.8551   13.0576 C.3     1  UNL1        0.4186
     25 F          65.6421   93.9189   12.0412 F       1  UNL1       -0.1659
     26 F          66.2251   91.7912   14.0741 F       1  UNL1       -0.1659
@<TRIPOS>BOND
     1    23    24    1
     2    24    25    1
     3    24    26    1
     4    24    17    1
     5    17    18   ar
     6    18    19   ar
     7    19    20   ar
     8    20    16    1
     9    16    15    1
    10    15     1    1
    11     1     9    1
    12     9    10   ar
    13    10    11   ar
    14    11    12   ar
    15    12    13   ar
    16     1     2    1
    17     2     3    1
    18     3     4    1
    19     4     5    1
    20     5     6    1
    21     6     7    1
    22    20    21   ar
    23    21    22   ar
    24    22    17   ar
    25    13     9   ar
    26     7     2    1
    27    13    14    1
    28     5     8    1
@<TRIPOS>MOLECULE
*****
 26 28 0 0 0
SMALL
GASTEIGER

@<TRIPOS>ATOM
      1 C          61.9402   87.6476   10.2411 C.3     1  UNL1        0.0509
      2 C          60.8373   87.7371    9.2282 C.3     1  UNL1        0.0091
      3 C          60.4136   89.0743    8.6969 C.3     1  UNL1        0.0175
      4 C          59.3108   89.1637    7.6841 C.3     1  UNL1        0.0686
      5 N          58.6317   87.9159    7.2026 N.3     1  UNL1       -0.2975
      6 C          59.0554   86.5787    7.7340 C.3     1  UNL1        0.0686
      7 C          60.1582   86.4893    8.7468 C.3     1  UNL1        0.0175
      8 H          58.7573   87.8840    6.1909 H       1  UNL1        0.1232
      9 C          62.2918   86.3236   10.8521 C.ar    1  UNL1        0.0546
     10 C          62.8317   85.1306   10.1205 C.ar    1  UNL1        0.1131
     11 N          63.0389   84.0298   11.1181 N.ar    1  UNL1       -0.2229
     12 C          62.6270   84.5425   12.4663 C.ar    1  UNL1        0.1748
     13 N          62.1653   85.9601   12.3019 N.ar    1  UNL1       -0.3382
     14 H          61.8369   86.5487   13.0195 H       1  UNL1        0.1672
     15 C          62.6913   88.8823   10.6430 C.3     1  UNL1        0.0680
     16 S          62.4611   89.4942   11.9929 S.3     1  UNL1       -0.1133
     17 C          65.7887   91.7138   14.0544 C.ar    1  UNL1        0.0715
     18 C          65.2738   92.1950   12.7303 C.ar    1  UNL1        0.0044
     19 C          64.1646   91.4551   12.0432 C.ar    1  UNL1        0.0061
     20 C          63.5703   90.2341   12.6801 C.ar    1  UNL1        0.0252
     21 C          64.0852   89.7529   14.0042 C.ar    1  UNL1        0.0061
     22 C          65.1944   90.4928   14.6914 C.ar    1  UNL1        0.0044
     23 F          68.0072   93.1936   15.4287 F       1  UNL1       -0.1659
     24 C          66.8979   92.4537   14.7416 C.3     1  UNL1        0.4186
     25 F          67.5790   91.1519   15.0439 F       1  UNL1       -0.1659
     26 F          66.2169   93.7556   14.4392 F       1  UNL1       -0.1659
@<TRIPOS>BOND
     1    23    24    1
     2    24    25    1
     3    24    26    1
     4    24    17    1
     5    17    18   ar
     6    18    19   ar
     7    19    20   ar
     8    20    16    1
     9    16    15    1
    10    15     1    1
    11     1     9    1
    12     9    10   ar
    13    10    11   ar
    14    11    12   ar
    15    12    13   ar
    16     1     2    1
    17     2     3    1
    18     3     4    1
    19     4     5    1
    20     5     6    1
    21     6     7    1
    22    20    21   ar
    23    21    22   ar
    24    22    17   ar
    25    13     9   ar
    26     7     2    1
    27    13    14    1
    28     5     8    1
@<TRIPOS>MOLECULE
*****
 26 28 0 0 0
SMALL
GASTEIGER

@<TRIPOS>ATOM
      1 C          63.6791   83.4441   13.5413 C.3     1  UNL1        0.0509
      2 C          63.5375   84.5584   14.5355 C.3     1  UNL1        0.0091
      3 C          62.6567   84.3842   15.7370 C.3     1  UNL1        0.0175
      4 C          62.5151   85.4986   16.7312 C.3     1  UNL1        0.0686
      5 N          63.2545   86.7871   16.5237 N.3     1  UNL1       -0.2975
      6 C          64.1353   86.9613   15.3221 C.3     1  UNL1        0.0686
      7 C          64.2769   85.8470   14.3280 C.3     1  UNL1        0.0175
      8 H          63.8452   86.9230   17.3441 H       1  UNL1        0.1232
      9 C          62.8824   82.1842   13.7085 C.ar    1  UNL1        0.0546
     10 C          63.3951   80.7863   13.5269 C.ar    1  UNL1        0.1131
     11 N          62.2628   79.8391   13.7927 N.ar    1  UNL1       -0.2229
     12 C          61.0502   80.6516   14.1387 C.ar    1  UNL1        0.1748
     13 N          61.4333   82.1010   14.0866 N.ar    1  UNL1       -0.3382
     14 H          60.8380   82.8637   14.2687 H       1  UNL1        0.1672
     15 C          64.6173   83.5897   12.3801 C.3     1  UNL1        0.0680
     16 S          64.1202   83.3698   10.9821 S.3     1  UNL1       -0.1133
     17 C          61.3403   86.3580    9.0865 C.ar    1  UNL1        0.0715
     18 C          61.2585   86.0868   10.5595 C.ar    1  UNL1        0.0044
     19 C          62.1851   85.0908   11.1913 C.ar    1  UNL1        0.0061
     20 C          63.1935   84.3659   10.3502 C.ar    1  UNL1        0.0252
     21 C          63.2754   84.6370    8.8772 C.ar    1  UNL1        0.0061
     22 C          62.3487   85.6331    8.2454 C.ar    1  UNL1        0.0044
     23 F          59.4870   88.3500    7.8227 F       1  UNL1       -0.1659
     24 C          60.4137   87.3540    8.4546 C.3     1  UNL1        0.4186
     25 F          61.2112   88.4751    9.0522 F       1  UNL1       -0.1659
     26 F          59.6161   86.2329    7.8570 F       1  UNL1       -0.1659
@<TRIPOS>BOND
     1    23    24    1
     2    24    25    1
     3    24    26    1
     4    24    17    1
     5    17    18   ar
     6    18    19   ar
     7    19    20   ar
     8    20    16    1
     9    16    15    1
    10    15     1    1
    11     1     9    1
    12     9    10   ar
    13    10    11   ar
    14    11    12   ar
    15    12    13   ar
    16     1     2    1
    17     2     3    1
    18     3     4    1
    19     4     5    1
    20     5     6    1
    21     6     7    1
    22    20    21   ar
    23    21    22   ar
    24    22    17   ar
    25    13     9   ar
    26     7     2    1
    27    13    14    1
    28     5     8    1
@<TRIPOS>MOLECULE
*****
 26 28 0 0 0
SMALL
GASTEIGER

@<TRIPOS>ATOM
      1 C          64.0604   88.7659   14.0003 C.3     1  UNL1        0.0509
      2 C          63.3914   88.9376   12.6687 C.3     1  UNL1        0.0091
      3 C          62.8082   87.7491   11.9635 C.3     1  UNL1        0.0175
      4 C          62.1392   87.9208   10.6319 C.3     1  UNL1        0.0686
      5 N          62.0534   89.2811   10.0056 N.3     1  UNL1       -0.2975
      6 C          62.6366   90.4697   10.7109 C.3     1  UNL1        0.0686
      7 C          63.3055   90.2979   12.0424 C.3     1  UNL1        0.0175
      8 H          61.0626   89.4788    9.8655 H       1  UNL1        0.1232
      9 C          64.1312   89.9181   14.9581 C.ar    1  UNL1        0.0546
     10 C          63.2306   90.1414   16.1367 C.ar    1  UNL1        0.1131
     11 N          63.6578   91.4105   16.8126 N.ar    1  UNL1       -0.2229
     12 C          64.8225   91.9715   16.0518 C.ar    1  UNL1        0.1748
     13 N          65.1151   91.0491   14.9057 N.ar    1  UNL1       -0.3382
     14 H          65.8277   91.1656   14.2365 H       1  UNL1        0.1672
     15 C          64.6585   87.4421   14.3739 C.3     1  UNL1        0.0680
     16 S          63.9058   86.5055   15.2717 S.3     1  UNL1       -0.1133
     17 C          62.9000   82.3539   13.8567 C.ar    1  UNL1        0.0715
     18 C          62.1384   82.9629   14.9965 C.ar    1  UNL1        0.0044
     19 C          62.4736   84.3467   15.4681 C.ar    1  UNL1        0.0061
     20 C          63.5705   85.1216   14.8000 C.ar    1  UNL1        0.0252
     21 C          64.3321   84.5127   13.6603 C.ar    1  UNL1        0.0061
     22 C          63.9968   83.1288   13.1887 C.ar    1  UNL1        0.0044
     23 F          62.2295   79.5861   12.9134 F       1  UNL1       -0.1659
     24 C          62.5647   80.9700   13.3851 C.3     1  UNL1        0.4186
     25 F          63.7765   80.9777   12.5011 F       1  UNL1       -0.1659
     26 F          61.3529   80.9623   14.2691 F       1  UNL1       -0.1659
@<TRIPOS>BOND
     1    23    24    1
     2    24    25    1
     3    24    26    1
     4    24    17    1
     5    17    18   ar
     6    18    19   ar
     7    19    20   ar
     8    20    16    1
     9    16    15    1
    10    15     1    1
    11     1     9    1
    12     9    10   ar
    13    10    11   ar
    14    11    12   ar
    15    12    13   ar
    16     1     2    1
    17     2     3    1
    18     3     4    1
    19     4     5    1
    20     5     6    1
    21     6     7    1
    22    20    21   ar
    23    21    22   ar
    24    22    17   ar
    25    13     9   ar
    26     7     2    1
    27    13    14    1
    28     5     8    1
@<TRIPOS>MOLECULE
*****
 26 28 0 0 0
SMALL
GASTEIGER

@<TRIPOS>ATOM
      1 C          61.7245   86.4193   10.5201 C.3     1  UNL1        0.0509
      2 C          62.6447   85.2907   10.8803 C.3     1  UNL1        0.0091
      3 C          62.9438   84.9975   12.3206 C.3     1  UNL1        0.0175
      4 C          63.8641   83.8689   12.6808 C.3     1  UNL1        0.0686
      5 N          64.4851   83.0337   11.6006 N.3     1  UNL1       -0.2975
      6 C          64.1860   83.3271   10.1603 C.3     1  UNL1        0.0686
      7 C          63.2658   84.4556    9.8001 C.3     1  UNL1        0.0175
      8 H          64.1969   82.0703   11.7709 H       1  UNL1        0.1232
      9 C          60.8839   86.3351    9.2806 C.ar    1  UNL1        0.0546
     10 C          61.2187   85.5629    8.0391 C.ar    1  UNL1        0.1131
     11 N          60.1027   85.7589    7.0562 N.ar    1  UNL1       -0.2229
     12 C          59.0781   86.6524    7.6903 C.ar    1  UNL1        0.1748
     13 N          59.5610   87.0085    9.0651 N.ar    1  UNL1       -0.3382
     14 H          59.0920   87.5833    9.7123 H       1  UNL1        0.1672
     15 C          61.6449   87.6319   11.3994 C.3     1  UNL1        0.0680
     16 S          62.3806   88.8829   11.0202 S.3     1  UNL1       -0.1133
     17 C          64.9948   90.9583   14.0382 C.ar    1  UNL1        0.0715
     18 C          64.5184   89.5593   14.2946 C.ar    1  UNL1        0.0044
     19 C          63.6470   88.8675   13.2886 C.ar    1  UNL1        0.0061
     20 C          63.2520   89.5747   12.0262 C.ar    1  UNL1        0.0252
     21 C          63.7284   90.9737   11.7698 C.ar    1  UNL1        0.0061
     22 C          64.5998   91.6655   12.7758 C.ar    1  UNL1        0.0044
     23 F          66.7376   92.3419   16.0502 F       1  UNL1       -0.1659
     24 C          65.8662   91.6501   15.0442 C.3     1  UNL1        0.4186
     25 F          67.0045   91.6369   14.0674 F       1  UNL1       -0.1659
     26 F          64.7280   91.6633   16.0211 F       1  UNL1       -0.1659
@<TRIPOS>BOND
     1    23    24    1
     2    24    25    1
     3    24    26    1
     4    24    17    1
     5    17    18   ar
     6    18    19   ar
     7    19    20   ar
     8    20    16    1
     9    16    15    1
    10    15     1    1
    11     1     9    1
    12     9    10   ar
    13    10    11   ar
    14    11    12   ar
    15    12    13   ar
    16     1     2    1
    17     2     3    1
    18     3     4    1
    19     4     5    1
    20     5     6    1
    21     6     7    1
    22    20    21   ar
    23    21    22   ar
    24    22    17   ar
    25    13     9   ar
    26     7     2    1
    27    13    14    1
    28     5     8    1
