@<TRIPOS>MOLECULE
*****
 37 41 0 0 0
SMALL
GASTEIGER

@<TRIPOS>ATOM
      1 C          64.4377   91.0078   12.0399 C.2     1  UNL1        0.3201
      2 N          63.5351   90.3791   11.0200 N.2     1  UNL1       -0.0600
      3 C          62.9812   89.0049   11.2542 C.3     1  UNL1        0.2689
      4 C          63.3299   88.2594   12.5082 C.2     1  UNL1        0.1165
      5 C          64.2325   88.8882   13.5282 C.2     1  UNL1        0.1177
      6 C          64.5812   88.1427   14.7822 C.3     1  UNL1        0.0754
      7 N          64.7863   90.2623   13.2939 N.pl3   1  UNL1       -0.2028
      8 H          65.3787   90.6750   13.9632 H       1  UNL1        0.2982
      9 C          62.0787   88.3763   10.2343 C.ar    1  UNL1        0.0582
     10 C          62.4698   87.0831    9.5823 C.ar    1  UNL1        0.0033
     11 C          61.5672   86.4545    8.5625 C.ar    1  UNL1        0.0114
     12 C          60.2737   87.1188    8.1945 C.ar    1  UNL1        0.0599
     13 CL         59.3711   86.4901    7.1746 Cl      1  UNL1       -0.0822
     14 C          59.8827   88.4119    8.8464 C.ar    1  UNL1        0.0408
     15 C          60.7852   89.0406    9.8664 C.ar    1  UNL1        0.1413
     16 F          60.3942   90.3337   10.5183 F       1  UNL1       -0.2043
     17 C          66.0992   95.1303   11.3370 C.ar    1  UNL1        0.1387
     18 C          65.3838   94.4115   10.2317 C.ar    1  UNL1        0.0371
     19 C          64.8300   93.0373   10.4660 C.ar    1  UNL1        0.0105
     20 C          64.9916   92.3820   11.8056 C.ar    1  UNL1        0.0823
     21 C          65.7069   93.1008   12.9108 C.ar    1  UNL1        0.0105
     22 C          66.2607   94.4750   12.6765 C.ar    1  UNL1        0.0371
     23 C          67.2493   96.8560    9.7719 C.3     1  UNL1        0.2525
     24 O          66.6530   96.5045   11.1027 O.3     1  UNL1       -0.4714
     25 C          62.7760   86.8853   12.7424 C.2     1  UNL1        0.2527
     26 O          61.3452   86.5860   12.4060 O.2     1  UNL1       -0.2699
     27 N          63.6530   85.8104   13.3131 N.am    1  UNL1       -0.2836
     28 H          64.5921   86.0069   13.5339 H       1  UNL1        0.1549
     29 C          63.0991   84.4362   13.5473 C.2     1  UNL1        0.0322
     30 C          62.2610   84.1622   14.7608 C.2     1  UNL1        0.0122
     31 C          61.7071   82.7879   14.9949 C.2     1  UNL1        0.0216
     32 C          61.9914   81.6878   14.0156 C.2     1  UNL1        0.1008
     33 N          61.5843   80.2445   13.9815 N.2     1  UNL1       -0.1482
     34 N          62.1709   79.6266   12.7470 N.2     1  UNL1       -0.1467
     35 C          62.9405   80.6880   12.0181 C.2     1  UNL1        0.1198
     36 C          62.8295   81.9619   12.8022 C.2     1  UNL1        0.0238
     37 C          63.3834   83.3361   12.5680 C.3     1  UNL1        0.0707
@<TRIPOS>BOND
     1    23    24    1
     2    24    17    1
     3    17    18   ar
     4    18    19   ar
     5    19    20   ar
     6    20     1    1
     7     1     2    2
     8     2     3    1
     9     3     9    1
    10     9    10   ar
    11    10    11   ar
    12    11    12   ar
    13    12    13    1
    14    12    14   ar
    15    14    15   ar
    16    15    16    1
    17     3     4    1
    18     4    25    1
    19    25    26    2
    20    25    27   am
    21    27    29    1
    22    29    30    2
    23    30    31    1
    24    31    32    2
    25    32    33    1
    26    33    34    2
    27    34    35    1
    28    35    36    2
    29    36    37    1
    30     4     5    2
    31     5     6    1
    32     5     7    1
    33    20    21   ar
    34    21    22   ar
    35    22    17   ar
    36     7     1    1
    37    15     9   ar
    38    37    29    1
    39    36    32    1
    40    27    28    1
    41     7     8    1
@<TRIPOS>MOLECULE
*****
 37 41 0 0 0
SMALL
GASTEIGER

@<TRIPOS>ATOM
      1 C          60.1481   89.5538    6.9986 C.2     1  UNL1        0.3201
      2 N          60.8551   90.0936    8.2063 N.2     1  UNL1       -0.0600
      3 C          61.1928   89.1811    9.3479 C.3     1  UNL1        0.2689
      4 C          60.8234   87.7288    9.2818 C.2     1  UNL1        0.1165
      5 C          60.1163   87.1889    8.0740 C.2     1  UNL1        0.1177
      6 C          59.7470   85.7367    8.0078 C.3     1  UNL1        0.0754
      7 N          59.7787   88.1015    6.9324 N.pl3   1  UNL1       -0.2028
      8 H          59.3146   87.7473    6.1397 H       1  UNL1        0.2982
      9 C          61.8998   89.7209   10.5556 C.ar    1  UNL1        0.0582
     10 C          63.3304   90.1605   10.4531 C.ar    1  UNL1        0.0033
     11 C          64.0375   90.7003   11.6608 C.ar    1  UNL1        0.0114
     12 C          63.3141   90.8006   12.9711 C.ar    1  UNL1        0.0599
     13 CL         64.0212   91.3404   14.1789 Cl      1  UNL1       -0.0822
     14 C          61.8836   90.3610   13.0736 C.ar    1  UNL1        0.0408
     15 C          61.1765   89.8212   11.8658 C.ar    1  UNL1        0.1413
     16 F          59.7460   89.3816   11.9683 F       1  UNL1       -0.2043
     17 C          59.1352   92.2914    3.5737 C.ar    1  UNL1        0.1387
     18 C          60.5604   91.8932    3.8194 C.ar    1  UNL1        0.0371
     19 C          60.8979   90.9806    4.9610 C.ar    1  UNL1        0.0105
     20 C          59.8104   90.4663    5.8569 C.ar    1  UNL1        0.0823
     21 C          58.3853   90.8646    5.6113 C.ar    1  UNL1        0.0105
     22 C          58.0476   91.7772    4.4696 C.ar    1  UNL1        0.0371
     23 C          59.7307   93.3199    1.2634 C.3     1  UNL1        0.2525
     24 O          58.7976   93.2040    2.4321 O.3     1  UNL1       -0.4714
     25 C          61.1611   86.8163   10.4234 C.2     1  UNL1        0.2527
     26 O          60.3064   86.8094   11.6561 O.2     1  UNL1       -0.2699
     27 N          62.3535   85.9107   10.3323 N.am    1  UNL1       -0.2836
     28 H          62.9144   85.9153    9.5232 H       1  UNL1        0.1549
     29 C          62.6912   84.9982   11.4739 C.2     1  UNL1        0.0322
     30 C          63.1921   85.5691   12.7675 C.2     1  UNL1        0.0122
     31 C          63.5298   84.6565   13.9091 C.2     1  UNL1        0.0216
     32 C          63.3665   83.1731   13.7571 C.2     1  UNL1        0.1008
     33 N          63.6171   82.0340   14.7003 N.2     1  UNL1       -0.1482
     34 N          63.2710   80.7592   13.9897 N.2     1  UNL1       -0.1467
     35 C          62.8065   81.1104   12.6074 C.2     1  UNL1        0.1198
     36 C          62.8656   82.6024   12.4636 C.2     1  UNL1        0.0238
     37 C          62.5279   83.5149   11.3220 C.3     1  UNL1        0.0707
@<TRIPOS>BOND
     1    23    24    1
     2    24    17    1
     3    17    18   ar
     4    18    19   ar
     5    19    20   ar
     6    20     1    1
     7     1     2    2
     8     2     3    1
     9     3     9    1
    10     9    10   ar
    11    10    11   ar
    12    11    12   ar
    13    12    13    1
    14    12    14   ar
    15    14    15   ar
    16    15    16    1
    17     3     4    1
    18     4    25    1
    19    25    26    2
    20    25    27   am
    21    27    29    1
    22    29    30    2
    23    30    31    1
    24    31    32    2
    25    32    33    1
    26    33    34    2
    27    34    35    1
    28    35    36    2
    29    36    37    1
    30     4     5    2
    31     5     6    1
    32     5     7    1
    33    20    21   ar
    34    21    22   ar
    35    22    17   ar
    36     7     1    1
    37    15     9   ar
    38    37    29    1
    39    36    32    1
    40    27    28    1
    41     7     8    1
@<TRIPOS>MOLECULE
*****
 37 41 0 0 0
SMALL
GASTEIGER

@<TRIPOS>ATOM
      1 C          60.5390   92.7052    2.2539 C.2     1  UNL1        0.3201
      2 N          59.5701   92.9453    1.1343 N.2     1  UNL1       -0.0600
      3 C          60.0206   93.6547   -0.1082 C.3     1  UNL1        0.2689
      4 C          61.4400   94.1240   -0.2311 C.2     1  UNL1        0.1165
      5 C          62.4090   93.8838    0.8886 C.2     1  UNL1        0.1177
      6 C          63.8283   94.3531    0.7657 C.3     1  UNL1        0.0754
      7 N          61.9583   93.1745    2.1310 N.pl3   1  UNL1       -0.2028
      8 H          62.5942   93.0169    2.8659 H       1  UNL1        0.2982
      9 C          59.0517   93.8948   -1.2279 C.ar    1  UNL1        0.0582
     10 C          58.9093   92.8832   -2.3263 C.ar    1  UNL1        0.0033
     11 C          57.9404   93.1232   -3.4459 C.ar    1  UNL1        0.0114
     12 C          57.1139   94.3748   -3.4672 C.ar    1  UNL1        0.0599
     13 CL         56.1450   94.6149   -4.5868 Cl      1  UNL1       -0.0822
     14 C          57.2563   95.3864   -2.3688 C.ar    1  UNL1        0.0408
     15 C          58.2252   95.1463   -1.2491 C.ar    1  UNL1        0.1413
     16 F          58.3676   96.1579   -0.1506 F       1  UNL1       -0.2043
     17 C          59.1874   90.5771    5.9814 C.ar    1  UNL1        0.1387
     18 C          60.6206   90.4916    5.5468 C.ar    1  UNL1        0.0371
     19 C          61.0710   91.2010    4.3043 C.ar    1  UNL1        0.0105
     20 C          60.0884   91.9959    3.4964 C.ar    1  UNL1        0.0823
     21 C          58.6554   92.0813    3.9310 C.ar    1  UNL1        0.0105
     22 C          58.2048   91.3719    5.1736 C.ar    1  UNL1        0.0371
     23 C          59.2759   88.5057    7.5471 C.3     1  UNL1        0.2525
     24 O          58.7369   89.8677    7.2239 O.3     1  UNL1       -0.4714
     25 C          61.8905   94.8333   -1.4736 C.2     1  UNL1        0.2527
     26 O          61.7662   96.3249   -1.5726 O.2     1  UNL1       -0.2699
     27 N          62.4653   94.0510   -2.6172 N.am    1  UNL1       -0.2836
     28 H          62.5468   93.0720   -2.5523 H       1  UNL1        0.1549
     29 C          62.9158   94.7604   -3.8597 C.2     1  UNL1        0.0322
     30 C          61.9077   95.1982   -4.8807 C.2     1  UNL1        0.0122
     31 C          62.3583   95.9076   -6.1233 C.2     1  UNL1        0.0216
     32 C          63.8169   96.1791   -6.3448 C.2     1  UNL1        0.1008
     33 N          64.5536   96.8530   -7.4642 N.2     1  UNL1       -0.1482
     34 N          66.0168   96.8316   -7.1351 N.2     1  UNL1       -0.1467
     35 C          66.1845   96.1445   -5.8123 C.2     1  UNL1        0.1198
     36 C          64.8248   95.7412   -5.3239 C.2     1  UNL1        0.0238
     37 C          64.3743   95.0319   -4.0814 C.3     1  UNL1        0.0707
@<TRIPOS>BOND
     1    23    24    1
     2    24    17    1
     3    17    18   ar
     4    18    19   ar
     5    19    20   ar
     6    20     1    1
     7     1     2    2
     8     2     3    1
     9     3     9    1
    10     9    10   ar
    11    10    11   ar
    12    11    12   ar
    13    12    13    1
    14    12    14   ar
    15    14    15   ar
    16    15    16    1
    17     3     4    1
    18     4    25    1
    19    25    26    2
    20    25    27   am
    21    27    29    1
    22    29    30    2
    23    30    31    1
    24    31    32    2
    25    32    33    1
    26    33    34    2
    27    34    35    1
    28    35    36    2
    29    36    37    1
    30     4     5    2
    31     5     6    1
    32     5     7    1
    33    20    21   ar
    34    21    22   ar
    35    22    17   ar
    36     7     1    1
    37    15     9   ar
    38    37    29    1
    39    36    32    1
    40    27    28    1
    41     7     8    1
@<TRIPOS>MOLECULE
*****
 37 41 0 0 0
SMALL
GASTEIGER

@<TRIPOS>ATOM
      1 C          64.4748   90.0764   12.8715 C.2     1  UNL1        0.3201
      2 N          63.5549   89.5988   11.7872 N.2     1  UNL1       -0.0600
      3 C          63.0436   88.1888   11.8046 C.3     1  UNL1        0.2689
      4 C          63.4522   87.2563   12.9063 C.2     1  UNL1        0.1165
      5 C          64.3722   87.7340   13.9906 C.2     1  UNL1        0.1177
      6 C          64.7808   86.8017   15.0922 C.3     1  UNL1        0.0754
      7 N          64.8834   89.1441   13.9731 N.pl3   1  UNL1       -0.2028
      8 H          65.4871   89.4576   14.6847 H       1  UNL1        0.2982
      9 C          62.1237   87.7112   10.7204 C.ar    1  UNL1        0.0582
     10 C          62.6237   86.7517    9.6813 C.ar    1  UNL1        0.0033
     11 C          61.7037   86.2741    8.5970 C.ar    1  UNL1        0.0114
     12 C          60.2839   86.7558    8.5517 C.ar    1  UNL1        0.0599
     13 CL         59.3640   86.2782    7.4675 Cl      1  UNL1       -0.0822
     14 C          59.7840   87.7152    9.5908 C.ar    1  UNL1        0.0408
     15 C          60.7039   88.1929   10.6751 C.ar    1  UNL1        0.1413
     16 F          60.2039   89.1523   11.7142 F       1  UNL1       -0.2043
     17 C          66.0085   94.3067   12.8190 C.ar    1  UNL1        0.1387
     18 C          65.4148   93.7087   11.5781 C.ar    1  UNL1        0.0371
     19 C          64.9036   92.2987   11.5956 C.ar    1  UNL1        0.0105
     20 C          64.9861   91.4866   12.8540 C.ar    1  UNL1        0.0823
     21 C          65.5798   92.0845   14.0949 C.ar    1  UNL1        0.0105
     22 C          66.0910   93.4946   14.0775 C.ar    1  UNL1        0.0371
     23 C          66.1506   96.6345   11.6739 C.3     1  UNL1        0.2525
     24 O          66.5198   95.7168   12.8015 O.3     1  UNL1       -0.4714
     25 C          62.9409   85.8463   12.9236 C.2     1  UNL1        0.2527
     26 O          61.4744   85.5782   12.7582 O.2     1  UNL1       -0.2699
     27 N          63.8962   84.7044   13.1065 N.am    1  UNL1       -0.2836
     28 H          64.8588   84.8803   13.2150 H       1  UNL1        0.1549
     29 C          63.3849   83.2943   13.1238 C.2     1  UNL1        0.0322
     30 C          64.1712   82.2031   12.4595 C.2     1  UNL1        0.0122
     31 C          63.6598   80.7930   12.4769 C.2     1  UNL1        0.0216
     32 C          62.3623   80.4741   13.1587 C.2     1  UNL1        0.1008
     33 N          61.6120   79.1876   13.3372 N.2     1  UNL1       -0.1482
     34 N          60.3621   79.4836   14.1119 N.2     1  UNL1       -0.1467
     35 C          60.3399   80.9531   14.4121 C.2     1  UNL1        0.1198
     36 C          61.5761   81.5653   13.8229 C.2     1  UNL1        0.0238
     37 C          62.0874   82.9753   13.8055 C.3     1  UNL1        0.0707
@<TRIPOS>BOND
     1    23    24    1
     2    24    17    1
     3    17    18   ar
     4    18    19   ar
     5    19    20   ar
     6    20     1    1
     7     1     2    2
     8     2     3    1
     9     3     9    1
    10     9    10   ar
    11    10    11   ar
    12    11    12   ar
    13    12    13    1
    14    12    14   ar
    15    14    15   ar
    16    15    16    1
    17     3     4    1
    18     4    25    1
    19    25    26    2
    20    25    27   am
    21    27    29    1
    22    29    30    2
    23    30    31    1
    24    31    32    2
    25    32    33    1
    26    33    34    2
    27    34    35    1
    28    35    36    2
    29    36    37    1
    30     4     5    2
    31     5     6    1
    32     5     7    1
    33    20    21   ar
    34    21    22   ar
    35    22    17   ar
    36     7     1    1
    37    15     9   ar
    38    37    29    1
    39    36    32    1
    40    27    28    1
    41     7     8    1
