@<TRIPOS>MOLECULE
*****
 51 55 0 0 0
SMALL
GASTEIGER

@<TRIPOS>ATOM
      1 C          61.0283   89.0457    9.4391 C.3     1  UNL1        0.0760
      2 N          60.5123   89.9388    8.3500 N.am    1  UNL1       -0.3042
      3 C          59.7454   89.3542    7.2010 C.2     1  UNL1        0.2429
      4 O          59.4945   87.8766    7.1411 O.2     1  UNL1       -0.2732
      5 H          60.6770   90.9086    8.3893 H       1  UNL1        0.1494
      6 CA         59.2294   90.2473    6.1119 C.3     1  UNL1        0.1793
      7 N          60.1771   90.8215    5.1008 N.am    1  UNL1       -0.2805
      8 C          59.7805   92.0271    4.3012 C.2     1  UNL1        0.3045
      9 O          58.4363   92.6584    4.5126 O.2     1  UNL1       -0.2526
     10 N          60.7281   92.6014    3.2902 N.am    1  UNL1       -0.2612
     11 H          61.0593   90.4072    4.9620 H       1  UNL1        0.1514
     12 C          62.0723   91.9700    3.0787 C.3     1  UNL1        0.0773
     13 C          63.0134   90.8195    3.2805 C.3     1  UNL1        0.0216
     14 C          63.4594   92.0272    2.5107 C.3     1  UNL1        0.0216
     15 C          60.3316   93.8069    2.4905 C.3     1  UNL1        0.1296
     16 C          60.2352   93.7173    0.9963 C.ar    1  UNL1        0.0479
     17 C          61.2960   94.1272    0.0182 C.ar    1  UNL1        0.1033
     18 N          60.7775   93.8653   -1.3648 N.ar    1  UNL1       -0.2350
     19 C          59.3963   93.2934   -1.2414 C.ar    1  UNL1        0.1343
     20 S          59.0611   93.2020    0.2178 S.2     1  UNL1       -0.0671
     21 C          57.7658   90.5661    6.0338 C.3     1  UNL1        0.1661
     22 O          57.0217   90.3640    4.7472 O.3     1  UNL1       -0.3798
     23 H          57.3581   90.9812    4.0787 H       1  UNL1        0.2105
     24 C          60.4798   87.6583    9.5942 C.3     1  UNL1        0.0459
     25 C          61.4139   86.4975    9.7675 C.ar    1  UNL1       -0.0205
     26 C          61.5574   85.8442   11.1100 C.ar    1  UNL1       -0.0042
     27 C          62.4915   84.6834   11.2832 C.ar    1  UNL1       -0.0003
     28 C          63.2820   84.1759   10.1138 C.ar    1  UNL1       -0.0000
     29 C          63.1385   84.8292    8.7713 C.ar    1  UNL1       -0.0003
     30 C          62.2044   85.9900    8.5981 C.ar    1  UNL1       -0.0042
     31 C          62.0930   89.5401   10.3730 C.3     1  UNL1        0.0216
     32 C          61.8893   89.4519   11.8565 C.3     1  UNL1        0.0217
     33 C          63.0674   89.5328   12.7813 C.3     1  UNL1        0.0792
     34 O          63.4180   88.8068   15.6710 O.2     1  UNL1       -0.2264
     35 C          63.9887   87.9237   14.6013 C.2     1  UNL1        0.4019
     36 N          63.8135   88.2867   13.1564 N.am    1  UNL1       -0.2720
     37 H          64.1881   87.7071   12.4543 H       1  UNL1        0.1527
     38 O          64.7348   86.6776   14.9764 O.3     1  UNL1       -0.4291
     39 C          64.0396   85.5875   15.7368 C.3     1  UNL1        0.2447
     40 C          63.6875   84.3012   15.0503 C.ar    1  UNL1        0.0714
     41 C          64.5669   83.5361   14.1062 C.ar    1  UNL1        0.1053
     42 N          63.8170   82.3161   13.6597 N.ar    1  UNL1       -0.2350
     43 C          62.4741   82.3272   14.3278 C.ar    1  UNL1        0.1343
     44 S          62.3940   83.5540   15.1872 S.2     1  UNL1       -0.0652
     45 C          63.4996   90.8598   13.3312 C.3     1  UNL1        0.0460
     46 C          64.6243   91.6103   12.6818 C.ar    1  UNL1       -0.0205
     47 C          64.5348   91.9905   11.2336 C.ar    1  UNL1       -0.0042
     48 C          65.6596   92.7410   10.5842 C.ar    1  UNL1       -0.0003
     49 C          66.8739   93.1113   11.3831 C.ar    1  UNL1       -0.0000
     50 C          66.9634   92.7312   12.8314 C.ar    1  UNL1       -0.0003
     51 C          65.8387   91.9807   13.4808 C.ar    1  UNL1       -0.0042
@<TRIPOS>BOND
     1    34    35    2
     2    35    36   am
     3    36    33    1
     4    33    32    1
     5    32    31    1
     6     1    31    1
     7     1    24    1
     8    24    25    1
     9    25    26   ar
    10    26    27   ar
    11    27    28   ar
    12    28    29   ar
    13    29    30   ar
    14     1     2    1
    15     2     3   am
    16     3     4    2
    17     3     6    1
    18     6    21    1
    19    21    22    1
    20     6     7    1
    21     7     8   am
    22     8     9    2
    23     8    10   am
    24    10    15    1
    25    15    16    1
    26    16    17   ar
    27    17    18   ar
    28    18    19   ar
    29    19    20   ar
    30    10    12    1
    31    12    13    1
    32    13    14    1
    33    33    45    1
    34    45    46    1
    35    46    47   ar
    36    47    48   ar
    37    48    49   ar
    38    49    50   ar
    39    50    51   ar
    40    35    38    1
    41    38    39    1
    42    39    40    1
    43    40    41   ar
    44    41    42   ar
    45    42    43   ar
    46    43    44   ar
    47    30    25   ar
    48    20    16   ar
    49    14    12    1
    50    51    46   ar
    51    44    40   ar
    52    36    37    1
    53     2     5    1
    54    22    23    1
    55     7    11    1
@<TRIPOS>MOLECULE
*****
 51 55 0 0 0
SMALL
GASTEIGER

@<TRIPOS>ATOM
      1 C          64.0722   87.4540   14.3061 C.3     1  UNL1        0.0760
      2 N          64.6344   88.8089   14.6194 N.am    1  UNL1       -0.3042
      3 C          63.8199   89.7963   15.4016 C.2     1  UNL1        0.2429
      4 O          62.4433   89.4288   15.8703 O.2     1  UNL1       -0.2732
      5 H          65.5379   89.0501   14.3117 H       1  UNL1        0.1494
      6 CA         64.3821   91.1512   15.7149 C.3     1  UNL1        0.1793
      7 N          65.6764   91.5879   15.0949 N.am    1  UNL1       -0.2805
      8 C          65.7596   91.8160   13.6147 C.2     1  UNL1        0.3045
      9 O          64.5485   91.6074   12.7544 O.2     1  UNL1       -0.2526
     10 N          67.0538   92.2526   12.9947 N.am    1  UNL1       -0.2612
     11 H          66.4712   91.7247   15.6595 H       1  UNL1        0.1514
     12 C          68.2648   92.4611   13.8550 C.3     1  UNL1        0.0773
     13 C          68.8932   93.0048   15.1038 C.3     1  UNL1        0.0216
     14 C          69.7340   92.2787   14.0961 C.3     1  UNL1        0.0216
     15 C          67.1370   92.4807   11.5145 C.3     1  UNL1        0.1296
     16 C          66.8456   93.8384   10.9473 C.ar    1  UNL1        0.0479
     17 C          66.1650   94.9662   11.6650 C.ar    1  UNL1        0.1033
     18 N          66.0824   96.1316   10.7242 N.ar    1  UNL1       -0.2350
     19 C          66.7119   95.7240    9.4250 C.ar    1  UNL1        0.1343
     20 S          67.1835   94.3068    9.5630 S.2     1  UNL1       -0.0671
     21 C          63.6501   92.0695   16.6481 C.3     1  UNL1        0.1661
     22 O          64.4002   93.1294   17.3990 O.3     1  UNL1       -0.3798
     23 H          65.0090   92.7108   18.0276 H       1  UNL1        0.2105
     24 C          64.1001   86.3720   15.3445 C.3     1  UNL1        0.0459
     25 C          63.7900   84.9555   14.9603 C.ar    1  UNL1       -0.0205
     26 C          62.4173   84.3981   15.1949 C.ar    1  UNL1       -0.0042
     27 C          62.1073   82.9817   14.8107 C.ar    1  UNL1       -0.0003
     28 C          63.1700   82.1227   14.1919 C.ar    1  UNL1       -0.0000
     29 C          64.5426   82.6801   13.9573 C.ar    1  UNL1       -0.0003
     30 C          64.8526   84.0965   14.3415 C.ar    1  UNL1       -0.0042
     31 C          63.4821   87.1812   12.9542 C.3     1  UNL1        0.0216
     32 C          62.7782   88.2757   12.2084 C.3     1  UNL1        0.0217
     33 C          61.8060   87.9352   11.1181 C.3     1  UNL1        0.0792
     34 O          59.6094   87.3532    9.1594 O.2     1  UNL1       -0.2264
     35 C          60.2686   88.7005    9.1685 C.2     1  UNL1        0.4019
     36 N          61.3669   88.9915   10.1478 N.am    1  UNL1       -0.2720
     37 H          61.7996   89.8758   10.1538 H       1  UNL1        0.1527
     38 O          59.8295   89.7569    8.1983 O.3     1  UNL1       -0.4291
     39 C          59.4282   89.3748    6.8044 C.3     1  UNL1        0.2447
     40 C          59.1325   90.4400    5.7905 C.ar    1  UNL1        0.0714
     41 C          57.7750   90.9774    5.4466 C.ar    1  UNL1        0.1053
     42 N          57.9460   92.0243    4.3860 N.ar    1  UNL1       -0.2350
     43 C          59.4091   92.1339    4.0744 C.ar    1  UNL1        0.1343
     44 S          60.1425   91.1547    4.9425 S.2     1  UNL1       -0.0652
     45 C          61.2728   86.5382   10.9979 C.3     1  UNL1        0.0460
     46 C          62.1648   85.4342   10.5127 C.ar    1  UNL1       -0.0205
     47 C          62.5054   84.2908   11.4218 C.ar    1  UNL1       -0.0042
     48 C          63.3974   83.1868   10.9366 C.ar    1  UNL1       -0.0003
     49 C          63.9488   83.2261    9.5422 C.ar    1  UNL1       -0.0000
     50 C          63.6082   84.3696    8.6330 C.ar    1  UNL1       -0.0003
     51 C          62.7162   85.4736    9.1182 C.ar    1  UNL1       -0.0042
@<TRIPOS>BOND
     1    34    35    2
     2    35    36   am
     3    36    33    1
     4    33    32    1
     5    32    31    1
     6     1    31    1
     7     1    24    1
     8    24    25    1
     9    25    26   ar
    10    26    27   ar
    11    27    28   ar
    12    28    29   ar
    13    29    30   ar
    14     1     2    1
    15     2     3   am
    16     3     4    2
    17     3     6    1
    18     6    21    1
    19    21    22    1
    20     6     7    1
    21     7     8   am
    22     8     9    2
    23     8    10   am
    24    10    15    1
    25    15    16    1
    26    16    17   ar
    27    17    18   ar
    28    18    19   ar
    29    19    20   ar
    30    10    12    1
    31    12    13    1
    32    13    14    1
    33    33    45    1
    34    45    46    1
    35    46    47   ar
    36    47    48   ar
    37    48    49   ar
    38    49    50   ar
    39    50    51   ar
    40    35    38    1
    41    38    39    1
    42    39    40    1
    43    40    41   ar
    44    41    42   ar
    45    42    43   ar
    46    43    44   ar
    47    30    25   ar
    48    20    16   ar
    49    14    12    1
    50    51    46   ar
    51    44    40   ar
    52    36    37    1
    53     2     5    1
    54    22    23    1
    55     7    11    1
@<TRIPOS>MOLECULE
*****
 51 55 0 0 0
SMALL
GASTEIGER

@<TRIPOS>ATOM
      1 C          63.5355   90.9393   11.2348 C.3     1  UNL1        0.0760
      2 N          62.7528   89.6920   10.9486 N.am    1  UNL1       -0.3042
      3 C          61.2561   89.7065   11.0479 C.2     1  UNL1        0.2429
      4 O          60.5422   90.9681   11.4334 O.2     1  UNL1       -0.2732
      5 H          63.2214   88.8640   10.6956 H       1  UNL1        0.1494
      6 CA         60.4734   88.4593   10.7617 C.3     1  UNL1        0.1793
      7 N          61.0647   87.3843    9.8986 N.am    1  UNL1       -0.2805
      8 C          62.0988   86.4547   10.4614 C.2     1  UNL1        0.3045
      9 O          62.5416   86.6002   11.8872 O.2     1  UNL1       -0.2526
     10 N          62.6900   85.3798    9.5984 N.am    1  UNL1       -0.2612
     11 H          60.7740   87.2888    8.9629 H       1  UNL1        0.1514
     12 C          62.2472   85.2343    8.1726 C.3     1  UNL1        0.0773
     13 C          61.1881   85.3781    7.1201 C.3     1  UNL1        0.0216
     14 C          62.5394   84.8385    6.7555 C.3     1  UNL1        0.0216
     15 C          63.7241   84.4502   10.1611 C.3     1  UNL1        0.1296
     16 C          63.3006   83.2418   10.9425 C.ar    1  UNL1        0.0479
     17 C          62.3704   83.2343   12.1192 C.ar    1  UNL1        0.1033
     18 N          62.2278   81.8168   12.5884 N.ar    1  UNL1       -0.2350
     19 C          63.0699   80.9481   11.7015 C.ar    1  UNL1        0.1343
     20 S          63.7329   81.8289   10.6844 S.2     1  UNL1       -0.0671
     21 C          59.0996   88.2870   11.3386 C.3     1  UNL1        0.1661
     22 O          58.8324   88.6651   12.7653 O.3     1  UNL1       -0.3798
     23 H          59.3306   88.0771   13.3543 H       1  UNL1        0.2105
     24 C          63.9419   91.8443   10.1098 C.3     1  UNL1        0.0459
     25 C          65.2189   92.6262   10.2002 C.ar    1  UNL1       -0.0205
     26 C          65.1774   94.1025   10.4624 C.ar    1  UNL1       -0.0042
     27 C          66.4543   94.8843   10.5527 C.ar    1  UNL1       -0.0003
     28 C          67.7727   94.1899   10.3809 C.ar    1  UNL1       -0.0000
     29 C          67.8142   92.7136   10.1187 C.ar    1  UNL1       -0.0003
     30 C          66.5373   91.9318   10.0284 C.ar    1  UNL1       -0.0042
     31 C          63.9117   91.2814   12.6460 C.3     1  UNL1        0.0216
     32 C          63.3829   90.4589   13.7835 C.3     1  UNL1        0.0217
     33 C          64.0851   90.4728   15.1089 C.3     1  UNL1        0.0792
     34 O          61.6073   89.3269   16.3529 O.2     1  UNL1       -0.2264
     35 C          62.9290   88.6453   16.5490 C.2     1  UNL1        0.4019
     36 N          64.1680   89.2183   15.9270 N.am    1  UNL1       -0.2720
     37 H          65.0355   88.7710   16.0557 H       1  UNL1        0.1527
     38 O          63.0119   87.3908   17.3671 O.3     1  UNL1       -0.4291
     39 C          62.4775   86.1011   16.8185 C.3     1  UNL1        0.2447
     40 C          63.3399   85.2457   15.9384 C.ar    1  UNL1        0.0714
     41 C          63.2266   83.7596   15.7690 C.ar    1  UNL1        0.1053
     42 N          64.2837   83.3217   14.7990 N.ar    1  UNL1       -0.2350
     43 C          65.0503   84.5372   14.3690 C.ar    1  UNL1        0.1343
     44 S          64.4670   85.7262   15.0731 S.2     1  UNL1       -0.0652
     45 C          64.7045   91.7414   15.6163 C.3     1  UNL1        0.0460
     46 C          66.1437   92.0436   15.3210 C.ar    1  UNL1       -0.0205
     47 C          66.9786   92.7757   16.3294 C.ar    1  UNL1       -0.0042
     48 C          68.4178   93.0779   16.0341 C.ar    1  UNL1       -0.0003
     49 C          69.0223   92.6480   14.7304 C.ar    1  UNL1       -0.0000
     50 C          68.1874   91.9159   13.7219 C.ar    1  UNL1       -0.0003
     51 C          66.7482   91.6136   14.0171 C.ar    1  UNL1       -0.0042
@<TRIPOS>BOND
     1    34    35    2
     2    35    36   am
     3    36    33    1
     4    33    32    1
     5    32    31    1
     6     1    31    1
     7     1    24    1
     8    24    25    1
     9    25    26   ar
    10    26    27   ar
    11    27    28   ar
    12    28    29   ar
    13    29    30   ar
    14     1     2    1
    15     2     3   am
    16     3     4    2
    17     3     6    1
    18     6    21    1
    19    21    22    1
    20     6     7    1
    21     7     8   am
    22     8     9    2
    23     8    10   am
    24    10    15    1
    25    15    16    1
    26    16    17   ar
    27    17    18   ar
    28    18    19   ar
    29    19    20   ar
    30    10    12    1
    31    12    13    1
    32    13    14    1
    33    33    45    1
    34    45    46    1
    35    46    47   ar
    36    47    48   ar
    37    48    49   ar
    38    49    50   ar
    39    50    51   ar
    40    35    38    1
    41    38    39    1
    42    39    40    1
    43    40    41   ar
    44    41    42   ar
    45    42    43   ar
    46    43    44   ar
    47    30    25   ar
    48    20    16   ar
    49    14    12    1
    50    51    46   ar
    51    44    40   ar
    52    36    37    1
    53     2     5    1
    54    22    23    1
    55     7    11    1
@<TRIPOS>MOLECULE
*****
 51 55 0 0 0
SMALL
GASTEIGER

@<TRIPOS>ATOM
      1 C          64.7721   91.2035   14.6670 C.3     1  UNL1        0.0760
      2 N          64.4670   89.7582   14.9274 N.am    1  UNL1       -0.3042
      3 C          63.5071   89.3785   16.0157 C.2     1  UNL1        0.2429
      4 O          62.8522   90.4442   16.8436 O.2     1  UNL1       -0.2732
      5 H          64.8968   89.0587   14.3840 H       1  UNL1        0.1494
      6 CA         63.2020   87.9331   16.2761 C.3     1  UNL1        0.1793
      7 N          63.1688   86.9567   15.1378 N.am    1  UNL1       -0.2805
      8 C          63.6410   85.5480   15.3441 C.2     1  UNL1        0.3045
      9 O          64.1464   85.1157   16.6887 O.2     1  UNL1       -0.2526
     10 N          63.6079   84.5716   14.2059 N.am    1  UNL1       -0.2612
     11 H          62.8371   87.2405   14.2554 H       1  UNL1        0.1514
     12 C          63.1025   85.0039   12.8614 C.3     1  UNL1        0.0773
     13 C          62.6788   86.0937   11.9217 C.3     1  UNL1        0.0216
     14 C          62.6508   84.6629   11.4723 C.3     1  UNL1        0.0216
     15 C          64.0801   83.1629   14.4122 C.3     1  UNL1        0.1296
     16 C          63.1947   82.0123   14.0350 C.ar    1  UNL1        0.0479
     17 C          61.7665   81.8247   14.4535 C.ar    1  UNL1        0.1033
     18 N          61.2711   80.5438   13.8503 N.ar    1  UNL1       -0.2350
     19 C          62.3933   79.9397   13.0590 C.ar    1  UNL1        0.1343
     20 S          63.5820   80.8473   13.1732 S.2     1  UNL1       -0.0671
     21 C          62.9301   87.4641   17.6747 C.3     1  UNL1        0.1661
     22 O          61.9453   86.3589   17.9170 O.3     1  UNL1       -0.3798
     23 H          61.0562   86.6583   17.6705 H       1  UNL1        0.2105
     24 C          65.5818   91.9891   15.6555 C.3     1  UNL1        0.0459
     25 C          67.0183   92.3079   15.3637 C.ar    1  UNL1       -0.0205
     26 C          67.7772   93.2392   16.2617 C.ar    1  UNL1       -0.0042
     27 C          69.2136   93.5580   15.9699 C.ar    1  UNL1       -0.0003
     28 C          69.8909   92.9454   14.7799 C.ar    1  UNL1       -0.0000
     29 C          69.1320   92.0141   13.8819 C.ar    1  UNL1       -0.0003
     30 C          67.6956   91.6953   14.1737 C.ar    1  UNL1       -0.0042
     31 C          64.2674   91.8634   13.4180 C.3     1  UNL1        0.0216
     32 C          64.2625   91.1097   12.1211 C.3     1  UNL1        0.0217
     33 C          63.9592   91.8261   10.8386 C.3     1  UNL1        0.0792
     34 O          61.6107   90.2406   11.8240 O.2     1  UNL1       -0.2264
     35 C          61.8165   90.4398   10.3516 C.2     1  UNL1        0.4019
     36 N          62.9908   91.2325    9.8589 N.am    1  UNL1       -0.2720
     37 H          63.1258   91.3633    8.8925 H       1  UNL1        0.1527
     38 O          60.8480   89.8463    9.3719 O.3     1  UNL1       -0.4291
     39 C          60.1380   88.5666    9.7008 C.3     1  UNL1        0.2447
     40 C          60.2349   87.3945    8.7699 C.ar    1  UNL1        0.0714
     41 C          59.1274   86.8538    7.9147 C.ar    1  UNL1        0.1053
     42 N          59.6643   85.6823    7.1469 N.ar    1  UNL1       -0.2350
     43 C          61.1036   85.4990    7.5275 C.ar    1  UNL1        0.1343
     44 S          61.4562   86.5572    8.5306 S.2     1  UNL1       -0.0652
     45 C          64.6244   93.1360   10.5357 C.3     1  UNL1        0.0460
     46 C          66.0725   93.1693   10.1460 C.ar    1  UNL1       -0.0205
     47 C          66.9628   92.0058   10.4678 C.ar    1  UNL1       -0.0042
     48 C          68.4109   92.0391   10.0781 C.ar    1  UNL1       -0.0003
     49 C          68.9688   93.2360    9.3666 C.ar    1  UNL1       -0.0000
     50 C          68.0785   94.3996    9.0448 C.ar    1  UNL1       -0.0003
     51 C          66.6304   94.3663    9.4345 C.ar    1  UNL1       -0.0042
@<TRIPOS>BOND
     1    34    35    2
     2    35    36   am
     3    36    33    1
     4    33    32    1
     5    32    31    1
     6     1    31    1
     7     1    24    1
     8    24    25    1
     9    25    26   ar
    10    26    27   ar
    11    27    28   ar
    12    28    29   ar
    13    29    30   ar
    14     1     2    1
    15     2     3   am
    16     3     4    2
    17     3     6    1
    18     6    21    1
    19    21    22    1
    20     6     7    1
    21     7     8   am
    22     8     9    2
    23     8    10   am
    24    10    15    1
    25    15    16    1
    26    16    17   ar
    27    17    18   ar
    28    18    19   ar
    29    19    20   ar
    30    10    12    1
    31    12    13    1
    32    13    14    1
    33    33    45    1
    34    45    46    1
    35    46    47   ar
    36    47    48   ar
    37    48    49   ar
    38    49    50   ar
    39    50    51   ar
    40    35    38    1
    41    38    39    1
    42    39    40    1
    43    40    41   ar
    44    41    42   ar
    45    42    43   ar
    46    43    44   ar
    47    30    25   ar
    48    20    16   ar
    49    14    12    1
    50    51    46   ar
    51    44    40   ar
    52    36    37    1
    53     2     5    1
    54    22    23    1
    55     7    11    1
@<TRIPOS>MOLECULE
*****
 51 55 0 0 0
SMALL
GASTEIGER

@<TRIPOS>ATOM
      1 C          63.4804   86.3458   13.3277 C.3     1  UNL1        0.0760
      2 N          63.7847   87.7809   13.6407 N.am    1  UNL1       -0.3042
      3 C          63.7140   88.2710   15.0566 C.2     1  UNL1        0.2429
      4 O          63.3390   87.3261   16.1595 O.2     1  UNL1       -0.2732
      5 H          64.0308   88.4011   12.9168 H       1  UNL1        0.1494
      6 CA         64.0182   89.7061   15.3696 C.3     1  UNL1        0.1793
      7 N          65.0490   90.4460   14.5694 N.am    1  UNL1       -0.2805
      8 C          64.6731   91.0742   13.2602 C.2     1  UNL1        0.3045
      9 O          63.2665   90.9624   12.7511 O.2     1  UNL1       -0.2526
     10 N          65.7038   91.8140   12.4600 N.am    1  UNL1       -0.2612
     11 H          65.9721   90.5193   14.9036 H       1  UNL1        0.1514
     12 C          67.1104   91.9257   12.9691 C.3     1  UNL1        0.0773
     13 C          68.5821   91.7075   12.7784 C.3     1  UNL1        0.0216
     14 C          68.0748   92.3376   14.0415 C.3     1  UNL1        0.0216
     15 C          65.3279   92.4422   11.1508 C.3     1  UNL1        0.1296
     16 C          66.0981   93.6223   10.6366 C.ar    1  UNL1        0.0479
     17 C          67.1104   93.6002    9.5299 C.ar    1  UNL1        0.1033
     18 N          67.6291   94.9958    9.3482 N.ar    1  UNL1       -0.2350
     19 C          66.9373   95.8805   10.3426 C.ar    1  UNL1        0.1343
     20 S          65.9911   95.0316   11.1388 S.2     1  UNL1       -0.0671
     21 C          63.2918   90.4013   16.4827 C.3     1  UNL1        0.1661
     22 O          63.4636   91.8779   16.6833 O.3     1  UNL1       -0.3798
     23 H          64.3787   92.0642   16.9454 H       1  UNL1        0.2105
     24 C          64.1044   85.2519   14.1426 C.3     1  UNL1        0.0459
     25 C          63.6533   83.8326   13.9633 C.ar    1  UNL1       -0.0205
     26 C          62.4395   83.3339   14.6901 C.ar    1  UNL1       -0.0042
     27 C          61.9884   81.9147   14.5108 C.ar    1  UNL1       -0.0003
     28 C          62.7510   80.9941   13.6048 C.ar    1  UNL1       -0.0000
     29 C          63.9648   81.4927   12.8780 C.ar    1  UNL1       -0.0003
     30 C          64.4159   82.9119   13.0573 C.ar    1  UNL1       -0.0042
     31 C          62.5522   86.0046   12.1999 C.3     1  UNL1        0.0216
     32 C          61.7986   87.0924   11.4935 C.3     1  UNL1        0.0217
     33 C          61.6575   87.0593   10.0006 C.3     1  UNL1        0.0792
     34 O          61.8376   89.9621    9.2648 O.2     1  UNL1       -0.2264
     35 C          60.5842   89.1911    8.9740 C.2     1  UNL1        0.4019
     36 N          60.4942   87.7396    9.3419 N.am    1  UNL1       -0.2720
     37 H          59.6716   87.2335    9.1511 H       1  UNL1        0.1527
     38 O          59.4209   89.8714    8.3154 O.3     1  UNL1       -0.4291
     39 C          59.0222   89.4923    6.9199 C.3     1  UNL1        0.2447
     40 C          59.0118   90.5283    5.8352 C.ar    1  UNL1        0.0714
     41 C          57.7958   91.1992    5.2684 C.ar    1  UNL1        0.1053
     42 N          58.2480   92.1609    4.2098 N.ar    1  UNL1       -0.2350
     43 C          59.7435   92.0844    4.1224 C.ar    1  UNL1        0.1343
     44 S          60.2156   91.0754    5.1269 S.2     1  UNL1       -0.0652
     45 C          62.6798   86.3459    9.1662 C.3     1  UNL1        0.0460
     46 C          62.2535   85.5867    7.9448 C.ar    1  UNL1       -0.0205
     47 C          63.2790   84.8975    7.0943 C.ar    1  UNL1       -0.0042
     48 C          62.8527   84.1382    5.8729 C.ar    1  UNL1       -0.0003
     49 C          61.4010   84.0682    5.5020 C.ar    1  UNL1       -0.0000
     50 C          60.3755   84.7574    6.3525 C.ar    1  UNL1       -0.0003
     51 C          60.8017   85.5166    7.5739 C.ar    1  UNL1       -0.0042
@<TRIPOS>BOND
     1    34    35    2
     2    35    36   am
     3    36    33    1
     4    33    32    1
     5    32    31    1
     6     1    31    1
     7     1    24    1
     8    24    25    1
     9    25    26   ar
    10    26    27   ar
    11    27    28   ar
    12    28    29   ar
    13    29    30   ar
    14     1     2    1
    15     2     3   am
    16     3     4    2
    17     3     6    1
    18     6    21    1
    19    21    22    1
    20     6     7    1
    21     7     8   am
    22     8     9    2
    23     8    10   am
    24    10    15    1
    25    15    16    1
    26    16    17   ar
    27    17    18   ar
    28    18    19   ar
    29    19    20   ar
    30    10    12    1
    31    12    13    1
    32    13    14    1
    33    33    45    1
    34    45    46    1
    35    46    47   ar
    36    47    48   ar
    37    48    49   ar
    38    49    50   ar
    39    50    51   ar
    40    35    38    1
    41    38    39    1
    42    39    40    1
    43    40    41   ar
    44    41    42   ar
    45    42    43   ar
    46    43    44   ar
    47    30    25   ar
    48    20    16   ar
    49    14    12    1
    50    51    46   ar
    51    44    40   ar
    52    36    37    1
    53     2     5    1
    54    22    23    1
    55     7    11    1
@<TRIPOS>MOLECULE
*****
 51 55 0 0 0
SMALL
GASTEIGER

@<TRIPOS>ATOM
      1 C          62.7652   90.4064   10.9302 C.3     1  UNL1        0.0760
      2 N          63.2627   89.2538   11.7511 N.am    1  UNL1       -0.3042
      3 C          63.2349   89.3324   13.2488 C.2     1  UNL1        0.2429
      4 O          62.7095   90.5637   13.9256 O.2     1  UNL1       -0.2732
      5 H          63.6075   88.4456   11.3069 H       1  UNL1        0.1494
      6 CA         63.7324   88.1798   14.0698 C.3     1  UNL1        0.1793
      7 N          63.6374   86.7816   13.5346 N.am    1  UNL1       -0.2805
      8 C          63.3045   85.6466   14.4570 C.2     1  UNL1        0.3045
      9 O          63.0665   85.9096   15.9145 O.2     1  UNL1       -0.2526
     10 N          63.2096   84.2485   13.9219 N.am    1  UNL1       -0.2612
     11 H          63.7936   86.6090   12.5780 H       1  UNL1        0.1514
     12 C          63.4476   83.9854   12.4644 C.3     1  UNL1        0.0773
     13 C          62.9140   83.7716   11.0789 C.3     1  UNL1        0.0216
     14 C          64.3933   83.7437   11.3255 C.3     1  UNL1        0.0216
     15 C          62.8766   83.1134   14.8443 C.3     1  UNL1        0.1296
     16 C          62.4657   81.7852   14.2811 C.ar    1  UNL1        0.0479
     17 C          61.0733   81.2277   14.2636 C.ar    1  UNL1        0.1033
     18 N          61.1220   79.8793   13.6083 N.ar    1  UNL1       -0.2350
     19 C          62.5447   79.6035   13.2208 C.ar    1  UNL1        0.1343
     20 S          63.3751   80.7814   13.6366 S.2     1  UNL1       -0.0671
     21 C          64.3248   88.4252   15.4258 C.3     1  UNL1        0.1661
     22 O          63.4666   88.9606   16.5334 O.3     1  UNL1       -0.3798
     23 H          63.1819   89.8618   16.3151 H       1  UNL1        0.2105
     24 C          63.7380   91.2724   10.1861 C.3     1  UNL1        0.0459
     25 C          64.6341   92.2111   10.9383 C.ar    1  UNL1       -0.0205
     26 C          64.9662   91.9407   12.3759 C.ar    1  UNL1       -0.0042
     27 C          65.8623   92.8794   13.1280 C.ar    1  UNL1       -0.0003
     28 C          66.4263   94.0886   12.4426 C.ar    1  UNL1       -0.0000
     29 C          66.0942   94.3591   11.0051 C.ar    1  UNL1       -0.0003
     30 C          65.1981   93.4203   10.2529 C.ar    1  UNL1       -0.0042
     31 C          61.2948   90.6930   10.8534 C.3     1  UNL1        0.0216
     32 C          60.3163   89.5637   10.7229 C.3     1  UNL1        0.0217
     33 C          60.1222   88.8889    9.3974 C.3     1  UNL1        0.0792
     34 O          58.2285   88.2673    7.1552 O.2     1  UNL1       -0.2264
     35 C          59.2209   89.3828    7.0112 C.2     1  UNL1        0.4019
     36 N          60.1678   89.6936    8.1324 N.am    1  UNL1       -0.2720
     37 H          60.8191   90.4258    8.0379 H       1  UNL1        0.1527
     38 O          59.2665   90.1875    5.7462 O.3     1  UNL1       -0.4291
     39 C          60.5612   90.7894    5.2864 C.3     1  UNL1        0.2447
     40 C          60.5715   91.7681    4.1497 C.ar    1  UNL1        0.0714
     41 C          59.4467   92.6820    3.7629 C.ar    1  UNL1        0.1053
     42 N          59.8884   93.4835    2.5744 N.ar    1  UNL1       -0.2350
     43 C          61.2862   93.0649    2.2266 C.ar    1  UNL1        0.1343
     44 S          61.7083   92.0047    3.2002 S.2     1  UNL1       -0.0652
     45 C          59.8825   87.4094    9.3369 C.3     1  UNL1        0.0460
     46 C          60.8479   86.5224    8.6081 C.ar    1  UNL1       -0.0205
     47 C          62.2892   86.4830    9.0217 C.ar    1  UNL1       -0.0042
     48 C          63.2547   85.5960    8.2930 C.ar    1  UNL1       -0.0003
     49 C          62.7789   84.7483    7.1506 C.ar    1  UNL1       -0.0000
     50 C          61.3375   84.7877    6.7369 C.ar    1  UNL1       -0.0003
     51 C          60.3720   85.6747    7.4657 C.ar    1  UNL1       -0.0042
@<TRIPOS>BOND
     1    34    35    2
     2    35    36   am
     3    36    33    1
     4    33    32    1
     5    32    31    1
     6     1    31    1
     7     1    24    1
     8    24    25    1
     9    25    26   ar
    10    26    27   ar
    11    27    28   ar
    12    28    29   ar
    13    29    30   ar
    14     1     2    1
    15     2     3   am
    16     3     4    2
    17     3     6    1
    18     6    21    1
    19    21    22    1
    20     6     7    1
    21     7     8   am
    22     8     9    2
    23     8    10   am
    24    10    15    1
    25    15    16    1
    26    16    17   ar
    27    17    18   ar
    28    18    19   ar
    29    19    20   ar
    30    10    12    1
    31    12    13    1
    32    13    14    1
    33    33    45    1
    34    45    46    1
    35    46    47   ar
    36    47    48   ar
    37    48    49   ar
    38    49    50   ar
    39    50    51   ar
    40    35    38    1
    41    38    39    1
    42    39    40    1
    43    40    41   ar
    44    41    42   ar
    45    42    43   ar
    46    43    44   ar
    47    30    25   ar
    48    20    16   ar
    49    14    12    1
    50    51    46   ar
    51    44    40   ar
    52    36    37    1
    53     2     5    1
    54    22    23    1
    55     7    11    1
@<TRIPOS>MOLECULE
*****
 51 55 0 0 0
SMALL
GASTEIGER

@<TRIPOS>ATOM
      1 C          62.3506   89.2703   10.5272 C.3     1  UNL1        0.0760
      2 N          62.7876   87.8765   10.1863 N.am    1  UNL1       -0.3042
      3 C          62.1125   86.7007   10.8283 C.2     1  UNL1        0.2429
      4 O          61.0005   86.9189   11.8110 O.2     1  UNL1       -0.2732
      5 H          63.5174   87.7333    9.5413 H       1  UNL1        0.1494
      6 CA         62.5495   85.3069   10.4874 C.3     1  UNL1        0.1793
      7 N          62.5521   84.2422   11.5440 N.am    1  UNL1       -0.2805
      8 C          63.0721   84.5494   12.9171 C.2     1  UNL1        0.3045
      9 O          63.5895   85.9214   13.2335 O.2     1  UNL1       -0.2526
     10 N          63.0746   83.4848   13.9737 N.am    1  UNL1       -0.2612
     11 H          62.2125   83.3417   11.3364 H       1  UNL1        0.1514
     12 C          62.5572   82.1128   13.6573 C.3     1  UNL1        0.0773
     13 C          62.7812   80.7342   13.1104 C.3     1  UNL1        0.0216
     14 C          61.4371   81.1152   13.6563 C.3     1  UNL1        0.0216
     15 C          63.5946   83.7921   15.3467 C.3     1  UNL1        0.1296
     16 C          62.9711   84.8901   16.1565 C.ar    1  UNL1        0.0479
     17 C          61.5113   85.2321   16.2019 C.ar    1  UNL1        0.1033
     18 N          61.3358   86.3922   17.1365 N.ar    1  UNL1       -0.2350
     19 C          62.6872   86.7671   17.6687 C.ar    1  UNL1        0.1343
     20 S          63.6978   85.8388   17.0630 S.2     1  UNL1       -0.0671
     21 C          62.9840   84.9777    9.0900 C.3     1  UNL1        0.1661
     22 O          62.6202   85.8907    7.9568 O.3     1  UNL1       -0.3798
     23 H          61.6582   85.8853    7.8332 H       1  UNL1        0.2105
     24 C          60.9625   89.7256   10.1866 C.3     1  UNL1        0.0459
     25 C          60.2392   89.1192    9.0207 C.ar    1  UNL1       -0.0205
     26 C          59.7096   87.7188    9.1127 C.ar    1  UNL1       -0.0042
     27 C          58.9864   87.1125    7.9468 C.ar    1  UNL1       -0.0003
     28 C          58.7927   87.9065    6.6890 C.ar    1  UNL1       -0.0000
     29 C          59.3222   89.3069    6.5971 C.ar    1  UNL1       -0.0003
     30 C          60.0455   89.9132    7.7629 C.ar    1  UNL1       -0.0042
     31 C          63.3017   90.2090   11.2087 C.3     1  UNL1        0.0216
     32 C          63.7525   91.4577   10.5105 C.3     1  UNL1        0.0217
     33 C          64.8949   92.2561   11.0648 C.3     1  UNL1        0.0792
     34 O          67.4014   92.2894   12.7131 O.2     1  UNL1       -0.2264
     35 C          66.1062   92.7565   13.3082 C.2     1  UNL1        0.4019
     36 N          64.8529   92.7399   12.4840 N.am    1  UNL1       -0.2720
     37 H          64.0028   93.0465   12.8746 H       1  UNL1        0.1527
     38 O          66.0642   93.2403   14.7274 O.3     1  UNL1       -0.4291
     39 C          65.7171   92.2891   15.8341 C.3     1  UNL1        0.2447
     40 C          64.7590   91.1628   15.5821 C.ar    1  UNL1        0.0714
     41 C          63.4277   90.9725   16.2465 C.ar    1  UNL1        0.1053
     42 N          62.8099   89.7211   15.6965 N.ar    1  UNL1       -0.2350
     43 C          63.7593   89.1381   14.6923 C.ar    1  UNL1        0.1343
     44 S          64.9639   90.0291   14.6216 S.2     1  UNL1       -0.0652
     45 C          66.0795   92.5707   10.2000 C.3     1  UNL1        0.0460
     46 C          66.3843   93.9931    9.8340 C.ar    1  UNL1       -0.0205
     47 C          65.7028   95.1162   10.5579 C.ar    1  UNL1       -0.0042
     48 C          66.0076   96.5386   10.1920 C.ar    1  UNL1       -0.0003
     49 C          66.9938   96.8379    9.1022 C.ar    1  UNL1       -0.0000
     50 C          67.6753   95.7147    8.3782 C.ar    1  UNL1       -0.0003
     51 C          67.3705   94.2923    8.7441 C.ar    1  UNL1       -0.0042
@<TRIPOS>BOND
     1    34    35    2
     2    35    36   am
     3    36    33    1
     4    33    32    1
     5    32    31    1
     6     1    31    1
     7     1    24    1
     8    24    25    1
     9    25    26   ar
    10    26    27   ar
    11    27    28   ar
    12    28    29   ar
    13    29    30   ar
    14     1     2    1
    15     2     3   am
    16     3     4    2
    17     3     6    1
    18     6    21    1
    19    21    22    1
    20     6     7    1
    21     7     8   am
    22     8     9    2
    23     8    10   am
    24    10    15    1
    25    15    16    1
    26    16    17   ar
    27    17    18   ar
    28    18    19   ar
    29    19    20   ar
    30    10    12    1
    31    12    13    1
    32    13    14    1
    33    33    45    1
    34    45    46    1
    35    46    47   ar
    36    47    48   ar
    37    48    49   ar
    38    49    50   ar
    39    50    51   ar
    40    35    38    1
    41    38    39    1
    42    39    40    1
    43    40    41   ar
    44    41    42   ar
    45    42    43   ar
    46    43    44   ar
    47    30    25   ar
    48    20    16   ar
    49    14    12    1
    50    51    46   ar
    51    44    40   ar
    52    36    37    1
    53     2     5    1
    54    22    23    1
    55     7    11    1
@<TRIPOS>MOLECULE
*****
 51 55 0 0 0
SMALL
GASTEIGER

@<TRIPOS>ATOM
      1 C          62.0400   89.4779   10.8684 C.3     1  UNL1        0.0760
      2 N          62.6310   88.1908   10.3743 N.am    1  UNL1       -0.3042
      3 C          62.0171   86.8816   10.7736 C.2     1  UNL1        0.2429
      4 O          60.8124   86.8596   11.6670 O.2     1  UNL1       -0.2732
      5 H          63.4217   88.2052    9.7880 H       1  UNL1        0.1494
      6 CA         62.6081   85.5945   10.2796 C.3     1  UNL1        0.1793
      7 N          62.7694   84.4347   11.2171 N.am    1  UNL1       -0.2805
      8 C          63.2399   84.6661   12.6224 C.2     1  UNL1        0.3045
      9 O          63.5491   86.0574   13.0903 O.2     1  UNL1       -0.2526
     10 N          63.4013   83.5064   13.5599 N.am    1  UNL1       -0.2612
     11 H          62.5665   83.5216   10.9100 H       1  UNL1        0.1514
     12 C          63.0921   82.1151   13.0920 C.3     1  UNL1        0.0773
     13 C          62.7465   81.1635   11.9852 C.3     1  UNL1        0.0216
     14 C          62.9023   80.6570   13.3885 C.3     1  UNL1        0.0216
     15 C          63.8718   83.7378   14.9653 C.3     1  UNL1        0.1296
     16 C          63.2069   84.7783   15.8170 C.ar    1  UNL1        0.0479
     17 C          61.7378   84.8756   16.1041 C.ar    1  UNL1        0.1033
     18 N          61.5173   86.0615   16.9957 N.ar    1  UNL1       -0.2350
     19 C          62.8501   86.6972   17.2596 C.ar    1  UNL1        0.1343
     20 S          63.8943   85.9041   16.5312 S.2     1  UNL1       -0.0671
     21 C          63.0377   85.4672    8.8481 C.3     1  UNL1        0.1661
     22 O          62.0558   85.0166    7.8075 O.3     1  UNL1       -0.3798
     23 H          61.7985   84.0978    7.9821 H       1  UNL1        0.2105
     24 C          60.6974   89.9260   10.3720 C.3     1  UNL1        0.0459
     25 C          60.0921   89.2810    9.1605 C.ar    1  UNL1       -0.0205
     26 C          59.5319   87.8924    9.2511 C.ar    1  UNL1       -0.0042
     27 C          58.9266   87.2474    8.0397 C.ar    1  UNL1       -0.0003
     28 C          58.8815   87.9909    6.7377 C.ar    1  UNL1       -0.0000
     29 C          59.4416   89.3795    6.6471 C.ar    1  UNL1       -0.0003
     30 C          60.0469   90.0245    7.8585 C.ar    1  UNL1       -0.0042
     31 C          62.7917   90.3169   11.8589 C.3     1  UNL1        0.0216
     32 C          63.7452   91.3705   11.3787 C.3     1  UNL1        0.0217
     33 C          64.7744   91.9329   12.3137 C.3     1  UNL1        0.0792
     34 O          67.1017   92.5932   10.5395 O.2     1  UNL1       -0.2264
     35 C          66.3881   93.6863   11.2783 C.2     1  UNL1        0.4019
     36 N          65.2245   93.3562   12.1655 N.am    1  UNL1       -0.2720
     37 H          64.7561   94.0736   12.6504 H       1  UNL1        0.1527
     38 O          66.8381   95.1095   11.1301 O.3     1  UNL1       -0.4291
     39 C          65.9156   96.1293   10.5311 C.3     1  UNL1        0.2447
     40 C          65.8572   96.3053    9.0426 C.ar    1  UNL1        0.0714
     41 C          66.9472   95.9626    8.0708 C.ar    1  UNL1        0.1053
     42 N          66.4623   96.3005    6.6921 N.ar    1  UNL1       -0.2350
     43 C          65.0726   96.8521    6.8119 C.ar    1  UNL1        0.1343
     44 S          64.6986   96.8551    8.2645 S.2     1  UNL1       -0.0652
     45 C          65.3537   91.0721   13.3970 C.3     1  UNL1        0.0460
     46 C          66.4157   91.6206   14.3034 C.ar    1  UNL1       -0.0205
     47 C          67.8521   91.6037   13.8718 C.ar    1  UNL1       -0.0042
     48 C          68.9141   92.1521   14.7782 C.ar    1  UNL1       -0.0003
     49 C          68.5396   92.7174   16.1161 C.ar    1  UNL1       -0.0000
     50 C          67.1031   92.7342   16.5478 C.ar    1  UNL1       -0.0003
     51 C          66.0411   92.1858   15.6414 C.ar    1  UNL1       -0.0042
@<TRIPOS>BOND
     1    34    35    2
     2    35    36   am
     3    36    33    1
     4    33    32    1
     5    32    31    1
     6     1    31    1
     7     1    24    1
     8    24    25    1
     9    25    26   ar
    10    26    27   ar
    11    27    28   ar
    12    28    29   ar
    13    29    30   ar
    14     1     2    1
    15     2     3   am
    16     3     4    2
    17     3     6    1
    18     6    21    1
    19    21    22    1
    20     6     7    1
    21     7     8   am
    22     8     9    2
    23     8    10   am
    24    10    15    1
    25    15    16    1
    26    16    17   ar
    27    17    18   ar
    28    18    19   ar
    29    19    20   ar
    30    10    12    1
    31    12    13    1
    32    13    14    1
    33    33    45    1
    34    45    46    1
    35    46    47   ar
    36    47    48   ar
    37    48    49   ar
    38    49    50   ar
    39    50    51   ar
    40    35    38    1
    41    38    39    1
    42    39    40    1
    43    40    41   ar
    44    41    42   ar
    45    42    43   ar
    46    43    44   ar
    47    30    25   ar
    48    20    16   ar
    49    14    12    1
    50    51    46   ar
    51    44    40   ar
    52    36    37    1
    53     2     5    1
    54    22    23    1
    55     7    11    1
@<TRIPOS>MOLECULE
*****
 51 55 0 0 0
SMALL
GASTEIGER

@<TRIPOS>ATOM
      1 C          62.3674   87.1858   11.8483 C.3     1  UNL1        0.0760
      2 N          62.9745   88.4317   11.2745 N.am    1  UNL1       -0.3042
      3 C          63.0236   89.6878   12.0930 C.2     1  UNL1        0.2429
      4 O          62.4658   89.6980   13.4853 O.2     1  UNL1       -0.2732
      5 H          63.3407   88.4250   10.3606 H       1  UNL1        0.1494
      6 CA         63.6307   90.9336   11.5191 C.3     1  UNL1        0.1793
      7 N          64.6526   91.7006   12.3049 N.am    1  UNL1       -0.2805
      8 C          65.1527   93.0207   11.7977 C.2     1  UNL1        0.3045
      9 O          64.6309   93.5738   10.5046 O.2     1  UNL1       -0.2526
     10 N          66.1746   93.7878   12.5834 N.am    1  UNL1       -0.2612
     11 H          64.9951   91.3376   13.1535 H       1  UNL1        0.1514
     12 C          66.6964   93.2347   13.8765 C.3     1  UNL1        0.0773
     13 C          66.8394   92.0912   14.8367 C.3     1  UNL1        0.0216
     14 C          67.4572   93.4203   15.1557 C.3     1  UNL1        0.0216
     15 C          66.6746   95.1079   12.0762 C.3     1  UNL1        0.1296
     16 C          66.8754   95.3186   10.6046 C.ar    1  UNL1        0.0479
     17 C          67.6483   94.4224    9.6830 C.ar    1  UNL1        0.1033
     18 N          67.5891   95.0124    8.3052 N.ar    1  UNL1       -0.2350
     19 C          66.7795   96.2733    8.3753 C.ar    1  UNL1        0.1343
     20 S          66.3385   96.4625    9.7965 S.2     1  UNL1       -0.0671
     21 C          63.2159   91.4124   10.1595 C.3     1  UNL1        0.1661
     22 O          62.1935   90.6458    9.3740 O.3     1  UNL1       -0.3798
     23 H          62.5528   89.7765    9.1373 H       1  UNL1        0.2105
     24 C          63.1847   86.2923   12.7336 C.3     1  UNL1        0.0459
     25 C          63.0104   84.8041   12.6633 C.ar    1  UNL1       -0.0205
     26 C          63.2604   84.0797   11.3739 C.ar    1  UNL1       -0.0042
     27 C          63.0861   82.5916   11.3037 C.ar    1  UNL1       -0.0003
     28 C          62.6616   81.8278   12.5230 C.ar    1  UNL1       -0.0000
     29 C          62.4115   82.5522   13.8124 C.ar    1  UNL1       -0.0003
     30 C          62.5859   84.0404   13.8826 C.ar    1  UNL1       -0.0042
     31 C          60.9430   86.8335   11.5370 C.3     1  UNL1        0.0216
     32 C          60.0357   87.8552   10.9181 C.3     1  UNL1        0.0217
     33 C          59.8912   87.9246    9.4268 C.3     1  UNL1        0.0792
     34 O          58.5859   88.3588    6.7607 O.2     1  UNL1       -0.2264
     35 C          59.3989   89.4539    7.3849 C.2     1  UNL1        0.4019
     36 N          60.0516   89.2368    8.7180 N.am    1  UNL1       -0.2720
     37 H          60.5853   89.9556    9.1277 H       1  UNL1        0.1527
     38 O          59.5593   90.7661    6.6761 O.3     1  UNL1       -0.4291
     39 C          59.1700   90.8915    5.2330 C.3     1  UNL1        0.2447
     40 C          60.0812   91.5910    4.2684 C.ar    1  UNL1        0.0714
     41 C          61.5430   91.3142    4.0775 C.ar    1  UNL1        0.1053
     42 N          62.0558   92.2422    3.0165 N.ar    1  UNL1       -0.2350
     43 C          60.9110   93.0926    2.5516 C.ar    1  UNL1        0.1343
     44 S          59.6906   92.6901    3.3254 S.2     1  UNL1       -0.0652
     45 C          59.5864   86.6818    8.6441 C.3     1  UNL1        0.0460
     46 C          60.6964   85.9230    7.9792 C.ar    1  UNL1       -0.0205
     47 C          60.4319   85.1623    6.7138 C.ar    1  UNL1       -0.0042
     48 C          61.5419   84.4035    6.0488 C.ar    1  UNL1       -0.0003
     49 C          62.9165   84.4056    6.6493 C.ar    1  UNL1       -0.0000
     50 C          63.1810   85.1663    7.9148 C.ar    1  UNL1       -0.0003
     51 C          62.0710   85.9251    8.5797 C.ar    1  UNL1       -0.0042
@<TRIPOS>BOND
     1    34    35    2
     2    35    36   am
     3    36    33    1
     4    33    32    1
     5    32    31    1
     6     1    31    1
     7     1    24    1
     8    24    25    1
     9    25    26   ar
    10    26    27   ar
    11    27    28   ar
    12    28    29   ar
    13    29    30   ar
    14     1     2    1
    15     2     3   am
    16     3     4    2
    17     3     6    1
    18     6    21    1
    19    21    22    1
    20     6     7    1
    21     7     8   am
    22     8     9    2
    23     8    10   am
    24    10    15    1
    25    15    16    1
    26    16    17   ar
    27    17    18   ar
    28    18    19   ar
    29    19    20   ar
    30    10    12    1
    31    12    13    1
    32    13    14    1
    33    33    45    1
    34    45    46    1
    35    46    47   ar
    36    47    48   ar
    37    48    49   ar
    38    49    50   ar
    39    50    51   ar
    40    35    38    1
    41    38    39    1
    42    39    40    1
    43    40    41   ar
    44    41    42   ar
    45    42    43   ar
    46    43    44   ar
    47    30    25   ar
    48    20    16   ar
    49    14    12    1
    50    51    46   ar
    51    44    40   ar
    52    36    37    1
    53     2     5    1
    54    22    23    1
    55     7    11    1
