@<TRIPOS>MOLECULE
*****
 16 17 0 0 0
SMALL
GASTEIGER

@<TRIPOS>ATOM
      1 O          63.4980   85.9841   13.2583 O.2     1  UNL1       -0.2865
      2 C          62.7301   84.9773   12.4542 C.2     1  UNL1        0.1971
      3 C          62.7693   83.5267   12.8338 C.ar    1  UNL1        0.0581
      4 C          62.8114   82.4730   11.7670 C.ar    1  UNL1        0.0063
      5 C          62.8506   81.0225   12.1467 C.ar    1  UNL1        0.0208
      6 C          62.8477   80.6254   13.5933 C.ar    1  UNL1        0.0989
      7 N          62.8056   81.6791   14.6601 N.ar    1  UNL1       -0.2422
      8 C          62.7664   83.1297   14.2803 C.ar    1  UNL1        0.1020
      9 C          61.9229   85.4212   11.2703 C.2     1  UNL1        0.0421
     10 C          61.7785   86.8829   10.9665 C.2     1  UNL1        0.0033
     11 C          60.9713   87.3268    9.7826 C.ar    1  UNL1        0.0001
     12 C          60.3531   86.3079    8.8718 C.ar    1  UNL1        0.0000
     13 C          59.5460   86.7518    7.6880 C.ar    1  UNL1        0.0000
     14 C          59.3571   88.2146    7.4150 C.ar    1  UNL1        0.0000
     15 C          59.9753   89.2335    8.3258 C.ar    1  UNL1        0.0000
     16 C          60.7824   88.7896    9.5096 C.ar    1  UNL1        0.0000
@<TRIPOS>BOND
     1     1     2    2
     2     2     9    1
     3     9    10    2
     4    10    11    1
     5    11    12   ar
     6    12    13   ar
     7    13    14   ar
     8    14    15   ar
     9    15    16   ar
    10     2     3    1
    11     3     4   ar
    12     4     5   ar
    13     5     6   ar
    14     6     7   ar
    15     7     8   ar
    16    16    11   ar
    17     8     3   ar
@<TRIPOS>MOLECULE
*****
 16 17 0 0 0
SMALL
GASTEIGER

@<TRIPOS>ATOM
      1 O          64.6980   83.2963   10.2258 O.2     1  UNL1       -0.2865
      2 C          63.4752   83.5815   11.0465 C.2     1  UNL1        0.1971
      3 C          63.0401   82.6127   12.1057 C.ar    1  UNL1        0.0581
      4 C          62.9175   81.1531   11.7825 C.ar    1  UNL1        0.0063
      5 C          62.4824   80.1843   12.8417 C.ar    1  UNL1        0.0208
      6 C          62.1698   80.6750   14.2243 C.ar    1  UNL1        0.0989
      7 N          62.2924   82.1347   14.5476 N.ar    1  UNL1       -0.2422
      8 C          62.7275   83.1035   13.4882 C.ar    1  UNL1        0.1020
      9 C          62.6876   84.8356   10.8079 C.2     1  UNL1        0.0421
     10 C          62.4825   85.3378    9.4094 C.2     1  UNL1        0.0033
     11 C          61.6949   86.5920    9.1708 C.ar    1  UNL1        0.0001
     12 C          62.0860   87.8657    9.8596 C.ar    1  UNL1        0.0000
     13 C          61.2984   89.1198    9.6210 C.ar    1  UNL1        0.0000
     14 C          60.1196   89.1000    8.6936 C.ar    1  UNL1        0.0000
     15 C          59.7285   87.8263    8.0048 C.ar    1  UNL1        0.0000
     16 C          60.5161   86.5722    8.2434 C.ar    1  UNL1        0.0000
@<TRIPOS>BOND
     1     1     2    2
     2     2     9    1
     3     9    10    2
     4    10    11    1
     5    11    12   ar
     6    12    13   ar
     7    13    14   ar
     8    14    15   ar
     9    15    16   ar
    10     2     3    1
    11     3     4   ar
    12     4     5   ar
    13     5     6   ar
    14     6     7   ar
    15     7     8   ar
    16    16    11   ar
    17     8     3   ar
@<TRIPOS>MOLECULE
*****
 16 17 0 0 0
SMALL
GASTEIGER

@<TRIPOS>ATOM
      1 O          64.6746   83.2789   10.2211 O.2     1  UNL1       -0.2865
      2 C          63.4162   83.5034   11.0059 C.2     1  UNL1        0.1971
      3 C          62.9689   82.4860   12.0133 C.ar    1  UNL1        0.0581
      4 C          62.5013   82.9275   13.3684 C.ar    1  UNL1        0.0063
      5 C          62.0539   81.9101   14.3757 C.ar    1  UNL1        0.0208
      6 C          62.0742   80.4511   14.0279 C.ar    1  UNL1        0.0989
      7 N          62.5419   80.0096   12.6728 N.ar    1  UNL1       -0.2422
      8 C          62.9892   81.0271   11.6654 C.ar    1  UNL1        0.1020
      9 C          62.6051   84.7455   10.7834 C.2     1  UNL1        0.0421
     10 C          62.5655   85.3822    9.4258 C.2     1  UNL1        0.0033
     11 C          61.7544   86.6242    9.2033 C.ar    1  UNL1        0.0001
     12 C          60.5394   86.5792    8.3248 C.ar    1  UNL1        0.0000
     13 C          59.7284   87.8212    8.1023 C.ar    1  UNL1        0.0000
     14 C          60.1323   89.1083    8.7583 C.ar    1  UNL1        0.0000
     15 C          61.3472   89.1533    9.6368 C.ar    1  UNL1        0.0000
     16 C          62.1583   87.9113    9.8593 C.ar    1  UNL1        0.0000
@<TRIPOS>BOND
     1     1     2    2
     2     2     9    1
     3     9    10    2
     4    10    11    1
     5    11    12   ar
     6    12    13   ar
     7    13    14   ar
     8    14    15   ar
     9    15    16   ar
    10     2     3    1
    11     3     4   ar
    12     4     5   ar
    13     5     6   ar
    14     6     7   ar
    15     7     8   ar
    16    16    11   ar
    17     8     3   ar
@<TRIPOS>MOLECULE
*****
 16 17 0 0 0
SMALL
GASTEIGER

@<TRIPOS>ATOM
      1 O          64.0701   82.9782   11.9556 O.2     1  UNL1       -0.2865
      2 C          63.2364   84.1792   12.2912 C.2     1  UNL1        0.1971
      3 C          63.2574   84.7421   13.6813 C.ar    1  UNL1        0.0581
      4 C          64.2652   85.7898   14.0511 C.ar    1  UNL1        0.0063
      5 C          64.2862   86.3527   15.4413 C.ar    1  UNL1        0.0208
      6 C          63.2994   85.8679   16.4618 C.ar    1  UNL1        0.0989
      7 N          62.2917   84.8202   16.0920 N.ar    1  UNL1       -0.2422
      8 C          62.2707   84.2573   14.7018 C.ar    1  UNL1        0.1020
      9 C          62.3815   84.8172   11.2365 C.2     1  UNL1        0.0421
     10 C          62.2848   86.3116   11.1522 C.2     1  UNL1        0.0033
     11 C          61.4299   86.9496   10.0976 C.ar    1  UNL1        0.0001
     12 C          61.2760   88.4411   10.0579 C.ar    1  UNL1        0.0000
     13 C          60.4212   89.0791    9.0032 C.ar    1  UNL1        0.0000
     14 C          59.7203   88.2255    7.9883 C.ar    1  UNL1        0.0000
     15 C          59.8742   86.7339    8.0280 C.ar    1  UNL1        0.0000
     16 C          60.7290   86.0960    9.0826 C.ar    1  UNL1        0.0000
@<TRIPOS>BOND
     1     1     2    2
     2     2     9    1
     3     9    10    2
     4    10    11    1
     5    11    12   ar
     6    12    13   ar
     7    13    14   ar
     8    14    15   ar
     9    15    16   ar
    10     2     3    1
    11     3     4   ar
    12     4     5   ar
    13     5     6   ar
    14     6     7   ar
    15     7     8   ar
    16    16    11   ar
    17     8     3   ar
@<TRIPOS>MOLECULE
*****
 16 17 0 0 0
SMALL
GASTEIGER

@<TRIPOS>ATOM
      1 O          64.3101   82.7927   14.3110 O.2     1  UNL1       -0.2865
      2 C          63.4766   83.9994   13.9964 C.2     1  UNL1        0.1971
      3 C          63.2479   85.0471   15.0452 C.ar    1  UNL1        0.0581
      4 C          64.0725   86.3001   15.0460 C.ar    1  UNL1        0.0063
      5 C          63.8438   87.3478   16.0948 C.ar    1  UNL1        0.0208
      6 C          62.7905   87.1425   17.1429 C.ar    1  UNL1        0.0989
      7 N          61.9659   85.8894   17.1421 N.ar    1  UNL1       -0.2422
      8 C          62.1946   84.8417   16.0933 C.ar    1  UNL1        0.1020
      9 C          62.8717   84.1585   12.6330 C.2     1  UNL1        0.0421
     10 C          62.9372   85.4837   11.9334 C.2     1  UNL1        0.0033
     11 C          62.3323   85.6427   10.5699 C.ar    1  UNL1        0.0001
     12 C          63.0311   85.0777    9.3689 C.ar    1  UNL1        0.0000
     13 C          62.4262   85.2368    8.0055 C.ar    1  UNL1        0.0000
     14 C          61.1226   85.9609    7.8432 C.ar    1  UNL1        0.0000
     15 C          60.4239   86.5259    9.0442 C.ar    1  UNL1        0.0000
     16 C          61.0287   86.3668   10.4076 C.ar    1  UNL1        0.0000
@<TRIPOS>BOND
     1     1     2    2
     2     2     9    1
     3     9    10    2
     4    10    11    1
     5    11    12   ar
     6    12    13   ar
     7    13    14   ar
     8    14    15   ar
     9    15    16   ar
    10     2     3    1
    11     3     4   ar
    12     4     5   ar
    13     5     6   ar
    14     6     7   ar
    15     7     8   ar
    16    16    11   ar
    17     8     3   ar
@<TRIPOS>MOLECULE
*****
 16 17 0 0 0
SMALL
GASTEIGER

@<TRIPOS>ATOM
      1 O          44.1704   72.1018   19.4034 O.2     1  UNL1       -0.2865
      2 C          44.9513   72.6606   18.2510 C.2     1  UNL1        0.1971
      3 C          45.9206   73.7830   18.4757 C.ar    1  UNL1        0.0581
      4 C          47.1469   73.5592   19.3101 C.ar    1  UNL1        0.0063
      5 C          48.1162   74.6815   19.5349 C.ar    1  UNL1        0.0208
      6 C          47.8593   76.0278   18.9253 C.ar    1  UNL1        0.0989
      7 N          46.6331   76.2517   18.0909 N.ar    1  UNL1       -0.2422
      8 C          45.6637   75.1292   17.8661 C.ar    1  UNL1        0.1020
      9 C          44.7627   72.0970   16.8737 C.2     1  UNL1        0.0421
     10 C          45.5572   70.9019   16.4371 C.2     1  UNL1        0.0033
     11 C          45.3686   70.3383   15.0598 C.ar    1  UNL1        0.0001
     12 C          44.1165   70.6398   14.2910 C.ar    1  UNL1        0.0000
     13 C          43.9279   70.0762   12.9138 C.ar    1  UNL1        0.0000
     14 C          44.9916   69.2110   12.3055 C.ar    1  UNL1        0.0000
     15 C          46.2437   68.9094   13.0743 C.ar    1  UNL1        0.0000
     16 C          46.4322   69.4731   14.4515 C.ar    1  UNL1        0.0000
@<TRIPOS>BOND
     1     1     2    2
     2     2     9    1
     3     9    10    2
     4    10    11    1
     5    11    12   ar
     6    12    13   ar
     7    13    14   ar
     8    14    15   ar
     9    15    16   ar
    10     2     3    1
    11     3     4   ar
    12     4     5   ar
    13     5     6   ar
    14     6     7   ar
    15     7     8   ar
    16    16    11   ar
    17     8     3   ar
@<TRIPOS>MOLECULE
*****
 16 17 0 0 0
SMALL
GASTEIGER

@<TRIPOS>ATOM
      1 O          59.7339   93.2294    3.4710 O.2     1  UNL1       -0.2865
      2 C          60.2014   93.4392    2.0613 C.2     1  UNL1        0.1971
      3 C          61.6594   93.6489    1.7780 C.ar    1  UNL1        0.0581
      4 C          62.6246   92.5111    1.9324 C.ar    1  UNL1        0.0063
      5 C          64.0826   92.7207    1.6492 C.ar    1  UNL1        0.0208
      6 C          64.5754   94.0682    1.2114 C.ar    1  UNL1        0.0989
      7 N          63.6102   95.2060    1.0570 N.ar    1  UNL1       -0.2422
      8 C          62.1522   94.9963    1.3403 C.ar    1  UNL1        0.1020
      9 C          59.2109   93.4394    0.9348 C.2     1  UNL1        0.0421
     10 C          59.4931   92.6550   -0.3122 C.2     1  UNL1        0.0033
     11 C          58.5026   92.6551   -1.4387 C.ar    1  UNL1        0.0001
     12 C          57.0538   92.3810   -1.1635 C.ar    1  UNL1        0.0000
     13 C          56.0633   92.3811   -2.2899 C.ar    1  UNL1        0.0000
     14 C          56.5217   92.6555   -3.6916 C.ar    1  UNL1        0.0000
     15 C          57.9705   92.9297   -3.9668 C.ar    1  UNL1        0.0000
     16 C          58.9609   92.9295   -2.8403 C.ar    1  UNL1        0.0000
@<TRIPOS>BOND
     1     1     2    2
     2     2     9    1
     3     9    10    2
     4    10    11    1
     5    11    12   ar
     6    12    13   ar
     7    13    14   ar
     8    14    15   ar
     9    15    16   ar
    10     2     3    1
    11     3     4   ar
    12     4     5   ar
    13     5     6   ar
    14     6     7   ar
    15     7     8   ar
    16    16    11   ar
    17     8     3   ar
@<TRIPOS>MOLECULE
*****
 16 17 0 0 0
SMALL
GASTEIGER

@<TRIPOS>ATOM
      1 O          71.1175   73.3964   12.6440 O.2     1  UNL1       -0.2865
      2 C          70.6269   72.3495   13.5998 C.2     1  UNL1        0.1971
      3 C          70.0738   71.0569   13.0772 C.ar    1  UNL1        0.0581
      4 C          68.9600   71.0694   12.0726 C.ar    1  UNL1        0.0063
      5 C          68.4069   69.7767   11.5500 C.ar    1  UNL1        0.0208
      6 C          68.9676   68.4716   12.0320 C.ar    1  UNL1        0.0989
      7 N          70.0814   68.4591   13.0365 N.ar    1  UNL1       -0.2422
      8 C          70.6345   69.7519   13.5592 C.ar    1  UNL1        0.1020
      9 C          70.6895   72.5954   15.0782 C.2     1  UNL1        0.0421
     10 C          71.9570   72.3194   15.8314 C.2     1  UNL1        0.0033
     11 C          72.0195   72.5653   17.3099 C.ar    1  UNL1        0.0001
     12 C          70.8835   72.1361   18.1903 C.ar    1  UNL1        0.0000
     13 C          70.9461   72.3819   19.6686 C.ar    1  UNL1        0.0000
     14 C          72.1447   73.0570   20.2666 C.ar    1  UNL1        0.0000
     15 C          73.2808   73.4862   19.3862 C.ar    1  UNL1        0.0000
     16 C          73.2182   73.2403   17.9078 C.ar    1  UNL1        0.0000
@<TRIPOS>BOND
     1     1     2    2
     2     2     9    1
     3     9    10    2
     4    10    11    1
     5    11    12   ar
     6    12    13   ar
     7    13    14   ar
     8    14    15   ar
     9    15    16   ar
    10     2     3    1
    11     3     4   ar
    12     4     5   ar
    13     5     6   ar
    14     6     7   ar
    15     7     8   ar
    16    16    11   ar
    17     8     3   ar
@<TRIPOS>MOLECULE
*****
 16 17 0 0 0
SMALL
GASTEIGER

@<TRIPOS>ATOM
      1 O          43.6607   70.3626   17.6889 O.2     1  UNL1       -0.2865
      2 C          44.6868   71.0283   16.8206 C.2     1  UNL1        0.1971
      3 C          45.1943   70.3335   15.5920 C.ar    1  UNL1        0.0581
      4 C          44.4865   70.5141   14.2818 C.ar    1  UNL1        0.0063
      5 C          44.9940   69.8193   13.0532 C.ar    1  UNL1        0.0208
      6 C          46.2093   68.9437   13.1346 C.ar    1  UNL1        0.0989
      7 N          46.9171   68.7631   14.4448 N.ar    1  UNL1       -0.2422
      8 C          46.4095   69.4580   15.6735 C.ar    1  UNL1        0.1020
      9 C          45.2054   72.3889   17.1810 C.2     1  UNL1        0.0421
     10 C          46.1408   72.5516   18.3423 C.2     1  UNL1        0.0033
     11 C          46.6595   73.9122   18.7027 C.ar    1  UNL1        0.0001
     12 C          45.8600   75.1344   18.3607 C.ar    1  UNL1        0.0000
     13 C          46.3787   76.4949   18.7211 C.ar    1  UNL1        0.0000
     14 C          47.6968   76.6332   19.4236 C.ar    1  UNL1        0.0000
     15 C          48.4963   75.4110   19.7656 C.ar    1  UNL1        0.0000
     16 C          47.9776   74.0505   19.4051 C.ar    1  UNL1        0.0000
@<TRIPOS>BOND
     1     1     2    2
     2     2     9    1
     3     9    10    2
     4    10    11    1
     5    11    12   ar
     6    12    13   ar
     7    13    14   ar
     8    14    15   ar
     9    15    16   ar
    10     2     3    1
    11     3     4   ar
    12     4     5   ar
    13     5     6   ar
    14     6     7   ar
    15     7     8   ar
    16    16    11   ar
    17     8     3   ar
