@<TRIPOS>MOLECULE
*****
 34 37 0 0 0
SMALL
GASTEIGER

@<TRIPOS>ATOM
      1 C          63.9089   89.5985   14.1208 C.3     1  UNL1        0.1379
      2 C          62.9932   89.7329   12.9403 C.ar    1  UNL1       -0.0007
      3 C          61.5086   89.6275   13.1268 C.ar    1  UNL1       -0.0017
      4 C          60.5930   89.7620   11.9463 C.ar    1  UNL1        0.0111
      5 C          61.1620   90.0017   10.5793 C.ar    1  UNL1        0.0577
      6 CL         60.2463   90.1362    9.3989 Cl      1  UNL1       -0.0822
      7 C          62.6466   90.1071   10.3928 C.ar    1  UNL1        0.0111
      8 C          63.5623   89.9727   11.5733 C.ar    1  UNL1       -0.0017
      9 N          65.2418   91.7907   14.8710 N.ar    1  UNL1       -0.2192
     10 N          65.1071   92.7840   15.9868 N.ar    1  UNL1       -0.0432
     11 N          63.9313   92.3811   16.8266 N.ar    1  UNL1       -0.0229
     12 N          63.3393   91.1388   16.2298 N.ar    1  UNL1       -0.1110
     13 C          64.1493   90.7739   15.0212 C.ar    1  UNL1        0.1791
     14 C          67.2367   91.0893   14.7026 C.3     1  UNL1        0.0245
     15 C          66.2857   91.8106   13.7941 C.3     1  UNL1        0.0896
     16 C          65.3348   92.5319   12.8856 C.3     1  UNL1        0.0245
     17 C          67.3297   91.8306   12.7171 C.3     1  UNL1        0.0245
     18 N          64.5841   88.2886   14.4009 N.3     1  UNL1       -0.2876
     19 H          65.5576   88.5001   14.6199 H       1  UNL1        0.1239
     20 C          64.0759   87.4026   15.4993 C.3     1  UNL1        0.0905
     21 C          64.1139   85.9117   15.3386 C.3     1  UNL1        0.1044
     22 N          63.0740   85.2202   14.5078 N.pl3   1  UNL1       -0.3315
     23 H          62.1190   85.3407   14.7141 H       1  UNL1        0.1469
     24 C          63.4892   84.3450   13.3625 C.ar    1  UNL1        0.0477
     25 C          64.2612   83.0854   13.6226 C.ar    1  UNL1        0.0350
     26 C          64.6764   82.2102   12.4773 C.ar    1  UNL1        0.1001
     27 N          64.3197   82.5946   11.0719 N.ar    1  UNL1       -0.2437
     28 C          63.5477   83.8542   10.8119 C.ar    1  UNL1        0.0833
     29 C          63.1910   84.2385    9.4065 C.ar    1  UNL1        0.0305
     30 C          62.4191   85.4981    9.1464 C.ar    1  UNL1        0.0592
     31 CL         62.0623   85.8824    7.7411 Cl      1  UNL1       -0.0822
     32 C          62.0038   86.3733   10.2917 C.ar    1  UNL1        0.0115
     33 C          62.3606   85.9889   11.6970 C.ar    1  UNL1        0.0036
     34 C          63.1325   84.7293   11.9571 C.ar    1  UNL1        0.0309
@<TRIPOS>BOND
     1    14    15    1
     2    15    16    1
     3    15    17    1
     4    15     9    1
     5     9    10   ar
     6    10    11   ar
     7    11    12   ar
     8    12    13   ar
     9    13     1    1
    10     1    18    1
    11    18    20    1
    12    20    21    1
    13    21    22    1
    14    22    24    1
    15    24    25   ar
    16    25    26   ar
    17    26    27   ar
    18    27    28   ar
    19    28    29   ar
    20    29    30   ar
    21    30    31    1
    22    30    32   ar
    23    32    33   ar
    24    33    34   ar
    25     1     2    1
    26     2     3   ar
    27     3     4   ar
    28     4     5   ar
    29     5     6    1
    30     5     7   ar
    31     7     8   ar
    32    13     9   ar
    33    34    24   ar
    34     8     2   ar
    35    34    28   ar
    36    18    19    1
    37    22    23    1
@<TRIPOS>MOLECULE
*****
 34 37 0 0 0
SMALL
GASTEIGER

@<TRIPOS>ATOM
      1 C          64.5941   91.3295   14.2176 C.3     1  UNL1        0.1379
      2 C          64.2217   90.0561   14.9173 C.ar    1  UNL1       -0.0007
      3 C          63.4419   90.1043   16.1978 C.ar    1  UNL1       -0.0017
      4 C          63.0695   88.8309   16.8975 C.ar    1  UNL1        0.0111
      5 C          63.4768   87.5092   16.3168 C.ar    1  UNL1        0.0577
      6 CL         63.1044   86.2358   17.0166 Cl      1  UNL1       -0.0822
      7 C          64.2566   87.4609   15.0363 C.ar    1  UNL1        0.0111
      8 C          64.6291   88.7343   14.3366 C.ar    1  UNL1       -0.0017
      9 N          66.7966   92.8088   13.8924 N.ar    1  UNL1       -0.2192
     10 N          67.7298   93.5383   14.8127 N.ar    1  UNL1       -0.0432
     11 N          67.2433   93.3409   16.2179 N.ar    1  UNL1       -0.0229
     12 N          66.0094   92.4895   16.1659 N.ar    1  UNL1       -0.1110
     13 C          65.7334   92.1606   14.7287 C.ar    1  UNL1        0.1791
     14 C          67.7824   91.5274   12.5190 C.3     1  UNL1        0.0245
     15 C          66.9073   92.7396   12.3981 C.3     1  UNL1        0.0896
     16 C          66.0322   93.9519   12.2772 C.3     1  UNL1        0.0245
     17 C          67.0179   92.6705   10.9037 C.3     1  UNL1        0.0245
     18 N          63.8273   91.7718   13.0066 N.3     1  UNL1       -0.2876
     19 H          64.2250   92.6650   12.7162 H       1  UNL1        0.1239
     20 C          63.7838   90.9001   11.7867 C.3     1  UNL1        0.0905
     21 C          62.6638   91.0466   10.7997 C.3     1  UNL1        0.1044
     22 N          61.3803   90.2981   11.0053 N.pl3   1  UNL1       -0.3315
     23 H          60.7729   90.5541   11.7366 H       1  UNL1        0.1469
     24 C          61.0222   89.1596   10.0967 C.ar    1  UNL1        0.0477
     25 C          60.1741   89.4058    8.8843 C.ar    1  UNL1        0.0350
     26 C          59.8161   88.2672    7.9757 C.ar    1  UNL1        0.1001
     27 N          60.3061   86.8825    8.2796 N.ar    1  UNL1       -0.2437
     28 C          61.1542   86.6363    9.4921 C.ar    1  UNL1        0.0833
     29 C          61.6442   85.2515    9.7960 C.ar    1  UNL1        0.0305
     30 C          62.4923   85.0053   11.0085 C.ar    1  UNL1        0.0592
     31 CL         62.9824   83.6206   11.3124 Cl      1  UNL1       -0.0822
     32 C          62.8504   86.1439   11.9171 C.ar    1  UNL1        0.0115
     33 C          62.3603   87.5286   11.6131 C.ar    1  UNL1        0.0036
     34 C          61.5122   87.7748   10.4006 C.ar    1  UNL1        0.0309
@<TRIPOS>BOND
     1    14    15    1
     2    15    16    1
     3    15    17    1
     4    15     9    1
     5     9    10   ar
     6    10    11   ar
     7    11    12   ar
     8    12    13   ar
     9    13     1    1
    10     1    18    1
    11    18    20    1
    12    20    21    1
    13    21    22    1
    14    22    24    1
    15    24    25   ar
    16    25    26   ar
    17    26    27   ar
    18    27    28   ar
    19    28    29   ar
    20    29    30   ar
    21    30    31    1
    22    30    32   ar
    23    32    33   ar
    24    33    34   ar
    25     1     2    1
    26     2     3   ar
    27     3     4   ar
    28     4     5   ar
    29     5     6    1
    30     5     7   ar
    31     7     8   ar
    32    13     9   ar
    33    34    24   ar
    34     8     2   ar
    35    34    28   ar
    36    18    19    1
    37    22    23    1
@<TRIPOS>MOLECULE
*****
 34 37 0 0 0
SMALL
GASTEIGER

@<TRIPOS>ATOM
      1 C          64.6180   90.9107   13.9731 C.3     1  UNL1        0.1379
      2 C          64.1931   89.7655   14.8437 C.ar    1  UNL1       -0.0007
      3 C          63.3924   90.0242   16.0854 C.ar    1  UNL1       -0.0017
      4 C          62.9675   88.8790   16.9560 C.ar    1  UNL1        0.0111
      5 C          63.3433   87.4751   16.5850 C.ar    1  UNL1        0.0577
      6 CL         62.9184   86.3299   17.4556 Cl      1  UNL1       -0.0822
      7 C          64.1441   87.2163   15.3432 C.ar    1  UNL1        0.0111
      8 C          64.5690   88.3615   14.4726 C.ar    1  UNL1       -0.0017
      9 N          66.6175   92.6481   13.6147 N.ar    1  UNL1       -0.2192
     10 N          67.4535   93.5044   14.5190 N.ar    1  UNL1       -0.0432
     11 N          66.9977   93.2721   15.9291 N.ar    1  UNL1       -0.0229
     12 N          65.8801   92.2722   15.8962 N.ar    1  UNL1       -0.1110
     13 C          65.6451   91.8866   14.4658 C.ar    1  UNL1        0.1791
     14 C          65.6481   93.5933   11.9816 C.3     1  UNL1        0.0245
     15 C          66.7335   92.5675   12.1213 C.3     1  UNL1        0.0896
     16 C          67.8190   91.5418   12.2611 C.3     1  UNL1        0.0245
     17 C          66.8496   92.4869   10.6280 C.3     1  UNL1        0.0245
     18 N          64.0158   91.0800   12.6097 N.3     1  UNL1       -0.2876
     19 H          64.7151   90.7643   11.9377 H       1  UNL1        0.1239
     20 C          62.7352   90.3800   12.2633 C.3     1  UNL1        0.0905
     21 C          62.7355   89.2740   11.2499 C.3     1  UNL1        0.1044
     22 N          62.1138   87.9505   11.5841 N.pl3   1  UNL1       -0.3315
     23 H          61.4982   87.8748   12.3487 H       1  UNL1        0.1469
     24 C          62.4301   86.7422   10.7535 C.ar    1  UNL1        0.0477
     25 C          62.4090   86.8348    9.2565 C.ar    1  UNL1        0.0350
     26 C          62.7254   85.6264    8.4258 C.ar    1  UNL1        0.1001
     27 N          63.0627   84.3256    9.0922 N.ar    1  UNL1       -0.2437
     28 C          63.0838   84.2331   10.5892 C.ar    1  UNL1        0.0833
     29 C          63.4212   82.9322   11.2555 C.ar    1  UNL1        0.0305
     30 C          63.4423   82.8397   12.7525 C.ar    1  UNL1        0.0592
     31 CL         63.7797   81.5389   13.4189 Cl      1  UNL1       -0.0822
     32 C          63.1260   84.0480   13.5832 C.ar    1  UNL1        0.0115
     33 C          62.7886   85.3488   12.9168 C.ar    1  UNL1        0.0036
     34 C          62.7675   85.4413   11.4198 C.ar    1  UNL1        0.0309
@<TRIPOS>BOND
     1    14    15    1
     2    15    16    1
     3    15    17    1
     4    15     9    1
     5     9    10   ar
     6    10    11   ar
     7    11    12   ar
     8    12    13   ar
     9    13     1    1
    10     1    18    1
    11    18    20    1
    12    20    21    1
    13    21    22    1
    14    22    24    1
    15    24    25   ar
    16    25    26   ar
    17    26    27   ar
    18    27    28   ar
    19    28    29   ar
    20    29    30   ar
    21    30    31    1
    22    30    32   ar
    23    32    33   ar
    24    33    34   ar
    25     1     2    1
    26     2     3   ar
    27     3     4   ar
    28     4     5   ar
    29     5     6    1
    30     5     7   ar
    31     7     8   ar
    32    13     9   ar
    33    34    24   ar
    34     8     2   ar
    35    34    28   ar
    36    18    19    1
    37    22    23    1
@<TRIPOS>MOLECULE
*****
 34 37 0 0 0
SMALL
GASTEIGER

@<TRIPOS>ATOM
      1 C          62.9227   86.1659   12.1035 C.3     1  UNL1        0.1379
      2 C          61.9980   86.4148   10.9489 C.ar    1  UNL1       -0.0007
      3 C          60.7525   87.2268   11.1471 C.ar    1  UNL1       -0.0017
      4 C          59.8278   87.4757    9.9925 C.ar    1  UNL1        0.0111
      5 C          60.1486   86.9125    8.6398 C.ar    1  UNL1        0.0577
      6 CL         59.2239   87.1613    7.4852 Cl      1  UNL1       -0.0822
      7 C          61.3941   86.1004    8.4416 C.ar    1  UNL1        0.0111
      8 C          62.3188   85.8515    9.5962 C.ar    1  UNL1       -0.0017
      9 N          63.6881   84.2357   13.7868 N.ar    1  UNL1       -0.2192
     10 N          64.0850   82.7966   13.6404 N.ar    1  UNL1       -0.0432
     11 N          64.0074   82.4401   12.1854 N.ar    1  UNL1       -0.0229
     12 N          63.5625   83.6589   11.4326 N.ar    1  UNL1       -0.1110
     13 C          63.3652   84.7686   12.4223 C.ar    1  UNL1        0.1791
     14 C          65.0385   85.4650   14.8662 C.3     1  UNL1        0.0245
     15 C          63.6252   85.0066   15.0720 C.3     1  UNL1        0.0896
     16 C          62.2119   84.5481   15.2778 C.3     1  UNL1        0.0245
     17 C          63.5622   85.7774   16.3573 C.3     1  UNL1        0.0245
     18 N          63.4048   87.3145   12.9393 N.3     1  UNL1       -0.2876
     19 H          64.3706   87.1080   13.1942 H       1  UNL1        0.1239
     20 C          63.3927   88.7061   12.3798 C.3     1  UNL1        0.0905
     21 C          62.9379   89.8534   13.2326 C.3     1  UNL1        0.1044
     22 N          63.1120   91.2625   12.7490 N.pl3   1  UNL1       -0.3315
     23 H          62.3394   91.8720   12.7199 H       1  UNL1        0.1469
     24 C          64.4634   91.7431   12.3099 C.ar    1  UNL1        0.0477
     25 C          64.7187   92.0433   10.8626 C.ar    1  UNL1        0.0350
     26 C          66.0702   92.5239   10.4234 C.ar    1  UNL1        0.1001
     27 N          67.1661   92.7042   11.4315 N.ar    1  UNL1       -0.2437
     28 C          66.9107   92.4040   12.8788 C.ar    1  UNL1        0.0833
     29 C          68.0068   92.5843   13.8869 C.ar    1  UNL1        0.0305
     30 C          67.7514   92.2840   15.3342 C.ar    1  UNL1        0.0592
     31 CL         68.8474   92.4643   16.3423 Cl      1  UNL1       -0.0822
     32 C          66.4000   91.8035   15.7734 C.ar    1  UNL1        0.0115
     33 C          65.3040   91.6232   14.7653 C.ar    1  UNL1        0.0036
     34 C          65.5594   91.9234   13.3180 C.ar    1  UNL1        0.0309
@<TRIPOS>BOND
     1    14    15    1
     2    15    16    1
     3    15    17    1
     4    15     9    1
     5     9    10   ar
     6    10    11   ar
     7    11    12   ar
     8    12    13   ar
     9    13     1    1
    10     1    18    1
    11    18    20    1
    12    20    21    1
    13    21    22    1
    14    22    24    1
    15    24    25   ar
    16    25    26   ar
    17    26    27   ar
    18    27    28   ar
    19    28    29   ar
    20    29    30   ar
    21    30    31    1
    22    30    32   ar
    23    32    33   ar
    24    33    34   ar
    25     1     2    1
    26     2     3   ar
    27     3     4   ar
    28     4     5   ar
    29     5     6    1
    30     5     7   ar
    31     7     8   ar
    32    13     9   ar
    33    34    24   ar
    34     8     2   ar
    35    34    28   ar
    36    18    19    1
    37    22    23    1
@<TRIPOS>MOLECULE
*****
 34 37 0 0 0
SMALL
GASTEIGER

@<TRIPOS>ATOM
      1 C          61.6968   87.0906   11.0467 C.3     1  UNL1        0.1379
      2 C          61.6471   86.4233    9.7042 C.ar    1  UNL1       -0.0007
      3 C          62.8426   85.6746    9.1942 C.ar    1  UNL1       -0.0017
      4 C          62.7929   85.0073    7.8517 C.ar    1  UNL1        0.0111
      5 C          61.5477   85.0887    7.0193 C.ar    1  UNL1        0.0577
      6 CL         61.4981   84.4215    5.6768 Cl      1  UNL1       -0.0822
      7 C          60.3522   85.8375    7.5293 C.ar    1  UNL1        0.0111
      8 C          60.4019   86.5048    8.8718 C.ar    1  UNL1       -0.0017
      9 N          60.9488   89.6523   11.1998 N.ar    1  UNL1       -0.2192
     10 N          59.7151   90.3713   11.6590 N.ar    1  UNL1       -0.0432
     11 N          58.7251   89.3439   12.1221 N.ar    1  UNL1       -0.0229
     12 N          59.3470   87.9899   11.9491 N.ar    1  UNL1       -0.1110
     13 C          60.7213   88.1805   11.3791 C.ar    1  UNL1        0.1791
     14 C          62.7052   90.4806   12.0534 C.3     1  UNL1        0.0245
     15 C          62.1917   90.2926   10.6566 C.3     1  UNL1        0.0896
     16 C          61.6782   90.1045    9.2599 C.3     1  UNL1        0.0245
     17 C          63.4347   90.9329   10.1134 C.3     1  UNL1        0.0245
     18 N          62.7221   86.6680   12.0568 N.3     1  UNL1       -0.2876
     19 H          62.6601   87.3272   12.8328 H       1  UNL1        0.1239
     20 C          62.6660   85.2922   12.6519 C.3     1  UNL1        0.0905
     21 C          63.9168   84.6490   13.1732 C.3     1  UNL1        0.1044
     22 N          64.6508   85.2633   14.3281 N.pl3   1  UNL1       -0.3315
     23 H          65.6320   85.2001   14.3775 H       1  UNL1        0.1469
     24 C          63.8898   85.9738   15.4079 C.ar    1  UNL1        0.0477
     25 C          63.0875   85.1875   16.4019 C.ar    1  UNL1        0.0350
     26 C          62.3265   85.8981   17.4816 C.ar    1  UNL1        0.1001
     27 N          62.3677   87.3951   17.5674 N.ar    1  UNL1       -0.2437
     28 C          63.1699   88.1814   16.5734 C.ar    1  UNL1        0.0833
     29 C          63.2111   89.6785   16.6592 C.ar    1  UNL1        0.0305
     30 C          64.0133   90.4649   15.6652 C.ar    1  UNL1        0.0592
     31 CL         64.0545   91.9618   15.7509 Cl      1  UNL1       -0.0822
     32 C          64.7744   89.7542   14.5854 C.ar    1  UNL1        0.0115
     33 C          64.7332   88.2573   14.4997 C.ar    1  UNL1        0.0036
     34 C          63.9309   87.4709   15.4937 C.ar    1  UNL1        0.0309
@<TRIPOS>BOND
     1    14    15    1
     2    15    16    1
     3    15    17    1
     4    15     9    1
     5     9    10   ar
     6    10    11   ar
     7    11    12   ar
     8    12    13   ar
     9    13     1    1
    10     1    18    1
    11    18    20    1
    12    20    21    1
    13    21    22    1
    14    22    24    1
    15    24    25   ar
    16    25    26   ar
    17    26    27   ar
    18    27    28   ar
    19    28    29   ar
    20    29    30   ar
    21    30    31    1
    22    30    32   ar
    23    32    33   ar
    24    33    34   ar
    25     1     2    1
    26     2     3   ar
    27     3     4   ar
    28     4     5   ar
    29     5     6    1
    30     5     7   ar
    31     7     8   ar
    32    13     9   ar
    33    34    24   ar
    34     8     2   ar
    35    34    28   ar
    36    18    19    1
    37    22    23    1
@<TRIPOS>MOLECULE
*****
 34 37 0 0 0
SMALL
GASTEIGER

@<TRIPOS>ATOM
      1 C          61.7237   87.3004   11.0992 C.3     1  UNL1        0.1379
      2 C          61.6459   86.6026    9.7737 C.ar    1  UNL1       -0.0007
      3 C          60.3892   86.6795    8.9583 C.ar    1  UNL1       -0.0017
      4 C          60.3114   85.9817    7.6328 C.ar    1  UNL1        0.0111
      5 C          61.4902   85.2071    7.1226 C.ar    1  UNL1        0.0577
      6 CL         61.4123   84.5093    5.7970 Cl      1  UNL1       -0.0822
      7 C          62.7469   85.1302    7.9380 C.ar    1  UNL1        0.0111
      8 C          62.8248   85.8280    9.2635 C.ar    1  UNL1       -0.0017
      9 N          61.0175   89.8764   11.2011 N.ar    1  UNL1       -0.2192
     10 N          59.8014   90.6255   11.6591 N.ar    1  UNL1       -0.0432
     11 N          58.8019   89.6250   12.1594 N.ar    1  UNL1       -0.0229
     12 N          59.4004   88.2577   12.0106 N.ar    1  UNL1       -0.1110
     13 C          60.7697   88.4130   11.4183 C.ar    1  UNL1        0.1791
     14 C          62.7286   90.8357   12.0084 C.3     1  UNL1        0.0245
     15 C          62.2629   90.4840   10.6267 C.3     1  UNL1        0.0896
     16 C          61.7971   90.1323    9.2449 C.3     1  UNL1        0.0245
     17 C          63.5082   91.0917   10.0522 C.3     1  UNL1        0.0245
     18 N          62.7557   86.8854   12.1058 N.3     1  UNL1       -0.2876
     19 H          63.5069   86.4306   11.5869 H       1  UNL1        0.1239
     20 C          63.3995   87.9140   12.9875 C.3     1  UNL1        0.0905
     21 C          64.2464   87.4828   14.1481 C.3     1  UNL1        0.1044
     22 N          64.8110   86.0937   14.1893 N.pl3   1  UNL1       -0.3315
     23 H          65.7751   85.9499   14.0512 H       1  UNL1        0.1469
     24 C          63.9067   84.9238   14.4411 C.ar    1  UNL1        0.0477
     25 C          63.1810   84.8045   15.7484 C.ar    1  UNL1        0.0350
     26 C          62.2767   83.6344   16.0002 C.ar    1  UNL1        0.1001
     27 N          62.0980   82.5838   14.9446 N.ar    1  UNL1       -0.2437
     28 C          62.8237   82.7032   13.6373 C.ar    1  UNL1        0.0833
     29 C          62.6451   81.6525   12.5817 C.ar    1  UNL1        0.0305
     30 C          63.3708   81.7718   11.2743 C.ar    1  UNL1        0.0592
     31 CL         63.1921   80.7212   10.2187 Cl      1  UNL1       -0.0822
     32 C          64.2751   82.9419   11.0226 C.ar    1  UNL1        0.0115
     33 C          64.4537   83.9925   12.0782 C.ar    1  UNL1        0.0036
     34 C          63.7280   83.8731   13.3855 C.ar    1  UNL1        0.0309
@<TRIPOS>BOND
     1    14    15    1
     2    15    16    1
     3    15    17    1
     4    15     9    1
     5     9    10   ar
     6    10    11   ar
     7    11    12   ar
     8    12    13   ar
     9    13     1    1
    10     1    18    1
    11    18    20    1
    12    20    21    1
    13    21    22    1
    14    22    24    1
    15    24    25   ar
    16    25    26   ar
    17    26    27   ar
    18    27    28   ar
    19    28    29   ar
    20    29    30   ar
    21    30    31    1
    22    30    32   ar
    23    32    33   ar
    24    33    34   ar
    25     1     2    1
    26     2     3   ar
    27     3     4   ar
    28     4     5   ar
    29     5     6    1
    30     5     7   ar
    31     7     8   ar
    32    13     9   ar
    33    34    24   ar
    34     8     2   ar
    35    34    28   ar
    36    18    19    1
    37    22    23    1
@<TRIPOS>MOLECULE
*****
 34 37 0 0 0
SMALL
GASTEIGER

@<TRIPOS>ATOM
      1 C          62.7131   85.5643   11.6949 C.3     1  UNL1        0.1379
      2 C          61.8147   86.1485   10.6453 C.ar    1  UNL1       -0.0007
      3 C          60.8048   87.1926   11.0191 C.ar    1  UNL1       -0.0017
      4 C          59.9064   87.7768    9.9695 C.ar    1  UNL1        0.0111
      5 C          60.0180   87.3169    8.5462 C.ar    1  UNL1        0.0577
      6 CL         59.1196   87.9011    7.4966 Cl      1  UNL1       -0.0822
      7 C          61.0279   86.2726    8.1723 C.ar    1  UNL1        0.0111
      8 C          61.9263   85.6884    9.2219 C.ar    1  UNL1       -0.0017
      9 N          63.8794   83.2759   12.4353 N.ar    1  UNL1       -0.2192
     10 N          64.6061   82.1759   11.7199 N.ar    1  UNL1       -0.0432
     11 N          64.6415   82.5170   10.2596 N.ar    1  UNL1       -0.0229
     12 N          63.9367   83.8278   10.0725 N.ar    1  UNL1       -0.1110
     13 C          63.4657   84.2968   11.4172 C.ar    1  UNL1        0.1791
     14 C          62.2995   82.6489   13.7044 C.3     1  UNL1        0.0245
     15 C          63.6132   83.3431   13.9099 C.3     1  UNL1        0.0896
     16 C          64.9268   84.0374   14.1154 C.3     1  UNL1        0.0245
     17 C          63.3470   83.4104   15.3846 C.3     1  UNL1        0.0245
     18 N          62.8589   86.2476   13.0223 N.3     1  UNL1       -0.2876
     19 H          63.1666   85.5375   13.6868 H       1  UNL1        0.1239
     20 C          63.7940   87.4112   13.1682 C.3     1  UNL1        0.0905
     21 C          63.2461   88.7936   13.3654 C.3     1  UNL1        0.1044
     22 N          63.8146   89.9437   12.5883 N.pl3   1  UNL1       -0.3315
     23 H          63.6800   89.9941   11.6143 H       1  UNL1        0.1469
     24 C          64.5882   91.0170   13.2950 C.ar    1  UNL1        0.0477
     25 C          64.7791   90.9488   14.7813 C.ar    1  UNL1        0.0350
     26 C          65.5528   92.0222   15.4881 C.ar    1  UNL1        0.1001
     27 N          66.1355   93.1636   14.7086 N.ar    1  UNL1       -0.2437
     28 C          65.9445   93.2317   13.2223 C.ar    1  UNL1        0.0833
     29 C          66.5273   94.3732   12.4429 C.ar    1  UNL1        0.0305
     30 C          66.3363   94.4414   10.9566 C.ar    1  UNL1        0.0592
     31 CL         66.9190   95.5828   10.1772 Cl      1  UNL1       -0.0822
     32 C          65.5627   93.3680   10.2499 C.ar    1  UNL1        0.0115
     33 C          64.9800   92.2266   11.0293 C.ar    1  UNL1        0.0036
     34 C          65.1709   92.1585   12.5156 C.ar    1  UNL1        0.0309
@<TRIPOS>BOND
     1    14    15    1
     2    15    16    1
     3    15    17    1
     4    15     9    1
     5     9    10   ar
     6    10    11   ar
     7    11    12   ar
     8    12    13   ar
     9    13     1    1
    10     1    18    1
    11    18    20    1
    12    20    21    1
    13    21    22    1
    14    22    24    1
    15    24    25   ar
    16    25    26   ar
    17    26    27   ar
    18    27    28   ar
    19    28    29   ar
    20    29    30   ar
    21    30    31    1
    22    30    32   ar
    23    32    33   ar
    24    33    34   ar
    25     1     2    1
    26     2     3   ar
    27     3     4   ar
    28     4     5   ar
    29     5     6    1
    30     5     7   ar
    31     7     8   ar
    32    13     9   ar
    33    34    24   ar
    34     8     2   ar
    35    34    28   ar
    36    18    19    1
    37    22    23    1
@<TRIPOS>MOLECULE
*****
 34 37 0 0 0
SMALL
GASTEIGER

@<TRIPOS>ATOM
      1 C          62.9492   85.8294   12.5832 C.3     1  UNL1        0.1379
      2 C          62.2100   85.9880   11.2876 C.ar    1  UNL1       -0.0007
      3 C          62.7598   85.3804   10.0312 C.ar    1  UNL1       -0.0017
      4 C          62.0206   85.5390    8.7357 C.ar    1  UNL1        0.0111
      5 C          60.7316   86.3051    8.6966 C.ar    1  UNL1        0.0577
      6 CL         59.9924   86.4637    7.4010 Cl      1  UNL1       -0.0822
      7 C          60.1818   86.9128    9.9530 C.ar    1  UNL1        0.0111
      8 C          60.9210   86.7542   11.2485 C.ar    1  UNL1       -0.0017
      9 N          63.0549   83.2140   13.1247 N.ar    1  UNL1       -0.2192
     10 N          62.6167   82.3492   14.2693 N.ar    1  UNL1       -0.0432
     11 N          61.9847   83.2337   15.3029 N.ar    1  UNL1       -0.0229
     12 N          62.0323   84.6451   14.7971 N.ar    1  UNL1       -0.1110
     13 C          62.6938   84.6329   13.4509 C.ar    1  UNL1        0.1791
     14 C          65.0075   83.4014   12.3169 C.3     1  UNL1        0.0245
     15 C          63.7349   82.7426   11.8735 C.3     1  UNL1        0.0896
     16 C          62.4624   82.0838   11.4301 C.3     1  UNL1        0.0245
     17 C          64.4149   82.2711   10.6223 C.3     1  UNL1        0.0245
     18 N          63.9440   86.8675   13.0110 N.3     1  UNL1       -0.2876
     19 H          63.7813   87.6889   12.4286 H       1  UNL1        0.1239
     20 C          63.9670   87.3430   14.4335 C.3     1  UNL1        0.0905
     21 C          64.3300   88.7651   14.7432 C.3     1  UNL1        0.1044
     22 N          63.3871   89.8750   14.3842 N.pl3   1  UNL1       -0.3315
     23 H          62.8378   90.2994   15.0823 H       1  UNL1        0.1469
     24 C          63.2812   90.3384   12.9615 C.ar    1  UNL1        0.0477
     25 C          62.2268   89.7642   12.0622 C.ar    1  UNL1        0.0350
     26 C          62.1209   90.2276   10.6395 C.ar    1  UNL1        0.1001
     27 N          63.0694   91.2651   10.1161 N.ar    1  UNL1       -0.2437
     28 C          64.1238   91.8392   11.0153 C.ar    1  UNL1        0.0833
     29 C          65.0722   92.8768   10.4918 C.ar    1  UNL1        0.0305
     30 C          66.1266   93.4509   11.3910 C.ar    1  UNL1        0.0592
     31 CL         67.0750   94.4884   10.8676 Cl      1  UNL1       -0.0822
     32 C          66.2325   92.9875   12.8138 C.ar    1  UNL1        0.0115
     33 C          65.2840   91.9501   13.3372 C.ar    1  UNL1        0.0036
     34 C          64.2297   91.3759   12.4380 C.ar    1  UNL1        0.0309
@<TRIPOS>BOND
     1    14    15    1
     2    15    16    1
     3    15    17    1
     4    15     9    1
     5     9    10   ar
     6    10    11   ar
     7    11    12   ar
     8    12    13   ar
     9    13     1    1
    10     1    18    1
    11    18    20    1
    12    20    21    1
    13    21    22    1
    14    22    24    1
    15    24    25   ar
    16    25    26   ar
    17    26    27   ar
    18    27    28   ar
    19    28    29   ar
    20    29    30   ar
    21    30    31    1
    22    30    32   ar
    23    32    33   ar
    24    33    34   ar
    25     1     2    1
    26     2     3   ar
    27     3     4   ar
    28     4     5   ar
    29     5     6    1
    30     5     7   ar
    31     7     8   ar
    32    13     9   ar
    33    34    24   ar
    34     8     2   ar
    35    34    28   ar
    36    18    19    1
    37    22    23    1
@<TRIPOS>MOLECULE
*****
 34 37 0 0 0
SMALL
GASTEIGER

@<TRIPOS>ATOM
      1 C          61.9966   86.8356   10.2653 C.3     1  UNL1        0.1379
      2 C          62.5896   88.0767   10.8636 C.ar    1  UNL1       -0.0007
      3 C          62.9593   88.1059   12.3170 C.ar    1  UNL1       -0.0017
      4 C          63.5523   89.3470   12.9152 C.ar    1  UNL1        0.0111
      5 C          63.7756   90.5590   12.0601 C.ar    1  UNL1        0.0577
      6 CL         64.3686   91.8001   12.6584 Cl      1  UNL1       -0.0822
      7 C          63.4059   90.5299   10.6067 C.ar    1  UNL1        0.0111
      8 C          62.8128   89.2887   10.0084 C.ar    1  UNL1       -0.0017
      9 N          59.7538   87.9923    9.3838 N.ar    1  UNL1       -0.2192
     10 N          58.7763   87.7084    8.2821 N.ar    1  UNL1       -0.0432
     11 N          59.2373   86.4776    7.5592 N.ar    1  UNL1       -0.0229
     12 N          60.4997   86.0009    8.2141 N.ar    1  UNL1       -0.1110
     13 C          60.8190   86.9370    9.3418 C.ar    1  UNL1        0.1791
     14 C          59.3647   88.1672   11.4618 C.3     1  UNL1        0.0245
     15 C          59.6793   89.1315   10.3568 C.3     1  UNL1        0.0896
     16 C          59.9939   90.0959    9.2517 C.3     1  UNL1        0.0245
     17 C          59.6048   90.2709   11.3297 C.3     1  UNL1        0.0245
     18 N          62.5812   85.4930   10.5906 N.3     1  UNL1       -0.2876
     19 H          61.8039   84.8915   10.8631 H       1  UNL1        0.1239
     20 C          63.3645   84.7448    9.5530 C.3     1  UNL1        0.0905
     21 C          63.9646   83.4104    9.8840 C.3     1  UNL1        0.1044
     22 N          64.5649   83.1731   11.2380 N.pl3   1  UNL1       -0.3315
     23 H          65.5306   83.3037   11.3781 H       1  UNL1        0.1469
     24 C          63.6938   82.7368   12.3785 C.ar    1  UNL1        0.0477
     25 C          62.9587   81.4314   12.3041 C.ar    1  UNL1        0.0350
     26 C          62.0876   80.9951   13.4447 C.ar    1  UNL1        0.1001
     27 N          61.9517   81.8642   14.6597 N.ar    1  UNL1       -0.2437
     28 C          62.6868   83.1697   14.7341 C.ar    1  UNL1        0.0833
     29 C          62.5508   84.0388   15.9491 C.ar    1  UNL1        0.0305
     30 C          63.2859   85.3442   16.0235 C.ar    1  UNL1        0.0592
     31 CL         63.1499   86.2133   17.2384 Cl      1  UNL1       -0.0822
     32 C          64.1570   85.7805   14.8829 C.ar    1  UNL1        0.0115
     33 C          64.2929   84.9114   13.6680 C.ar    1  UNL1        0.0036
     34 C          63.5578   83.6059   13.5935 C.ar    1  UNL1        0.0309
@<TRIPOS>BOND
     1    14    15    1
     2    15    16    1
     3    15    17    1
     4    15     9    1
     5     9    10   ar
     6    10    11   ar
     7    11    12   ar
     8    12    13   ar
     9    13     1    1
    10     1    18    1
    11    18    20    1
    12    20    21    1
    13    21    22    1
    14    22    24    1
    15    24    25   ar
    16    25    26   ar
    17    26    27   ar
    18    27    28   ar
    19    28    29   ar
    20    29    30   ar
    21    30    31    1
    22    30    32   ar
    23    32    33   ar
    24    33    34   ar
    25     1     2    1
    26     2     3   ar
    27     3     4   ar
    28     4     5   ar
    29     5     6    1
    30     5     7   ar
    31     7     8   ar
    32    13     9   ar
    33    34    24   ar
    34     8     2   ar
    35    34    28   ar
    36    18    19    1
    37    22    23    1
