@<TRIPOS>MOLECULE
*****
 39 43 0 0 0
SMALL
GASTEIGER

@<TRIPOS>ATOM
      1 C          64.0602   84.5603   13.7635 C.ar    1  UNL1        0.0951
      2 C          63.9564   83.0721   13.9199 C.ar    1  UNL1        0.1454
      3 F          64.5956   82.3952   15.0960 F       1  UNL1       -0.2040
      4 C          63.2133   82.2609   12.9002 C.ar    1  UNL1        0.0312
      5 C          62.5741   82.9378   11.7242 C.ar    1  UNL1        0.0204
      6 C          62.6779   84.4260   11.5678 C.ar    1  UNL1        0.0924
      7 C          63.4210   85.2373   12.5875 C.ar    1  UNL1        0.1598
      8 F          63.5248   86.7254   12.4310 F       1  UNL1       -0.2026
      9 C          64.8033   85.3716   14.7832 C.2     1  UNL1        0.2036
     10 O          66.2903   85.2275   14.9174 O.2     1  UNL1       -0.2863
     11 C          64.5436   90.2341   14.7138 C.2     1  UNL1        0.0322
     12 C          63.6701   90.7860   15.8011 C.2     1  UNL1        0.2321
     13 N          62.9899   89.8559   16.7614 N.2     1  UNL1       -0.0311
     14 C          63.1832   88.3738   16.6344 C.2     1  UNL1        0.3721
     15 N          62.6459   87.2199   17.4280 N.2     1  UNL1       -0.0307
     16 C          63.1874   85.9548   16.8311 C.2     1  UNL1        0.2390
     17 C          64.0593   86.3268   15.6687 C.2     1  UNL1        0.0896
     18 C          64.0568   87.8219   15.5471 C.2     1  UNL1        0.0774
     19 C          64.7369   88.7520   14.5868 C.3     1  UNL1        0.0647
     20 C          66.5843   93.0244   11.8327 C.ar    1  UNL1        0.3201
     21 N          67.2969   92.5751   13.0738 N.ar    1  UNL1       -0.1927
     22 C          66.6167   91.6450   14.0342 C.ar    1  UNL1        0.1050
     23 C          65.2239   91.1642   13.7534 C.ar    1  UNL1        0.0386
     24 C          64.5112   91.6135   12.5124 C.ar    1  UNL1        0.1050
     25 N          65.1914   92.5435   11.5520 N.ar    1  UNL1       -0.1927
     26 C          67.6035   93.4867    9.4882 C.3     1  UNL1        0.2559
     27 O          67.2645   93.9544   10.8724 O.3     1  UNL1       -0.4426
     28 N          62.0387   85.1030   10.3918 N.pl3   1  UNL1       -0.2128
     29 H          61.8542   84.5926    9.5704 H       1  UNL1        0.1738
     30 S          61.6805   86.5577   10.4673 S.O2    1  UNL1        0.0737
     31 O          60.9097   86.3025   11.7284 O.2     1  UNL1       -0.1499
     32 O          62.4514   86.8129    9.2060 O.2     1  UNL1       -0.1499
     33 C          61.3224   88.0123   10.5427 C.ar    1  UNL1        0.1274
     34 C          59.9979   88.4303   11.1094 C.ar    1  UNL1        0.0203
     35 C          59.6398   89.8849   11.1848 C.ar    1  UNL1        0.0037
     36 C          60.6061   90.9217   10.6935 C.ar    1  UNL1        0.0297
     37 C          61.9305   90.5038   10.1268 C.ar    1  UNL1        0.1415
     38 F          62.8969   91.5405    9.6356 F       1  UNL1       -0.2041
     39 C          62.2887   89.0491   10.0514 C.ar    1  UNL1        0.0498
@<TRIPOS>BOND
     1    26    27    1
     2    27    20    1
     3    20    21   ar
     4    21    22   ar
     5    22    23   ar
     6    23    11    1
     7    11    12    2
     8    12    13    1
     9    13    14    2
    10    14    15    1
    11    15    16    2
    12    16    17    1
    13    17     9    1
    14     9    10    2
    15     9     1    1
    16     1     2   ar
    17     2     3    1
    18     2     4   ar
    19     4     5   ar
    20     5     6   ar
    21     6    28    1
    22    28    30    1
    23    30    31    2
    24    30    32    2
    25    30    33    1
    26    33    34   ar
    27    34    35   ar
    28    35    36   ar
    29    36    37   ar
    30    37    38    1
    31    37    39   ar
    32     6     7   ar
    33     7     8    1
    34    17    18    2
    35    18    19    1
    36    23    24   ar
    37    24    25   ar
    38    25    20   ar
    39    19    11    1
    40    18    14    1
    41     7     1   ar
    42    39    33   ar
    43    28    29    1
@<TRIPOS>MOLECULE
*****
 39 43 0 0 0
SMALL
GASTEIGER

@<TRIPOS>ATOM
      1 C          64.4290   91.0917   14.3254 C.ar    1  UNL1        0.0951
      2 C          64.6689   91.5514   15.7329 C.ar    1  UNL1        0.1454
      3 F          63.6905   91.1992   16.8139 F       1  UNL1       -0.2040
      4 C          65.8873   92.3632   16.0594 C.ar    1  UNL1        0.0312
      5 C          66.8657   92.7153   14.9784 C.ar    1  UNL1        0.0204
      6 C          66.6259   92.2557   13.5709 C.ar    1  UNL1        0.0924
      7 C          65.4075   91.4439   13.2444 C.ar    1  UNL1        0.1598
      8 F          65.1677   90.9843   11.8368 F       1  UNL1       -0.2026
      9 C          63.2107   90.2799   13.9989 C.2     1  UNL1        0.2036
     10 O          62.3783   89.6994   15.1033 O.2     1  UNL1       -0.2863
     11 C          62.6466   86.1504   11.4800 C.2     1  UNL1        0.0322
     12 C          62.2475   86.3883   10.0538 C.2     1  UNL1        0.2321
     13 N          62.0657   87.7892    9.5496 N.2     1  UNL1       -0.0311
     14 C          62.2830   88.9523   10.4716 C.2     1  UNL1        0.3721
     15 N          62.1791   90.4338   10.2602 N.2     1  UNL1       -0.0307
     16 C          62.5140   91.1114   11.5558 C.2     1  UNL1        0.2390
     17 C          62.8248   90.0488   12.5679 C.2     1  UNL1        0.0896
     18 C          62.6820   88.7144   11.8978 C.2     1  UNL1        0.0774
     19 C          62.8638   87.3135   12.4020 C.3     1  UNL1        0.0647
     20 C          63.1920   81.9475   12.9928 C.ar    1  UNL1        0.3201
     21 N          63.3534   82.2455   11.5316 N.ar    1  UNL1       -0.1927
     22 C          63.1716   83.6465   11.0273 C.ar    1  UNL1        0.1050
     23 C          62.8284   84.7494   11.9842 C.ar    1  UNL1        0.0386
     24 C          62.6671   84.4514   13.4455 C.ar    1  UNL1        0.1050
     25 N          62.8489   83.0505   13.9497 N.ar    1  UNL1       -0.1927
     26 C          62.2482   79.5606   13.3944 C.3     1  UNL1        0.2559
     27 O          63.3738   80.5466   13.4971 O.3     1  UNL1       -0.4426
     28 N          67.6043   92.6079   12.4899 N.pl3   1  UNL1       -0.2128
     29 H          68.4990   92.1971   12.4829 H       1  UNL1        0.1738
     30 S          67.2195   93.5858   11.4196 S.O2    1  UNL1        0.0737
     31 O          66.4310   94.3739   12.4230 O.2     1  UNL1       -0.1499
     32 O          68.0080   92.7977   10.4160 O.2     1  UNL1       -0.1499
     33 C          66.8348   94.5637   10.3492 C.ar    1  UNL1        0.1274
     34 C          67.7980   94.8845    9.2450 C.ar    1  UNL1        0.0203
     35 C          67.4132   95.8624    8.1746 C.ar    1  UNL1        0.0037
     36 C          66.0653   96.5196    8.2085 C.ar    1  UNL1        0.0297
     37 C          65.1021   96.1988    9.3127 C.ar    1  UNL1        0.1415
     38 F          63.7541   96.8560    9.3465 F       1  UNL1       -0.2041
     39 C          65.4868   95.2209   10.3830 C.ar    1  UNL1        0.0498
@<TRIPOS>BOND
     1    26    27    1
     2    27    20    1
     3    20    21   ar
     4    21    22   ar
     5    22    23   ar
     6    23    11    1
     7    11    12    2
     8    12    13    1
     9    13    14    2
    10    14    15    1
    11    15    16    2
    12    16    17    1
    13    17     9    1
    14     9    10    2
    15     9     1    1
    16     1     2   ar
    17     2     3    1
    18     2     4   ar
    19     4     5   ar
    20     5     6   ar
    21     6    28    1
    22    28    30    1
    23    30    31    2
    24    30    32    2
    25    30    33    1
    26    33    34   ar
    27    34    35   ar
    28    35    36   ar
    29    36    37   ar
    30    37    38    1
    31    37    39   ar
    32     6     7   ar
    33     7     8    1
    34    17    18    2
    35    18    19    1
    36    23    24   ar
    37    24    25   ar
    38    25    20   ar
    39    19    11    1
    40    18    14    1
    41     7     1   ar
    42    39    33   ar
    43    28    29    1
@<TRIPOS>MOLECULE
*****
 39 43 0 0 0
SMALL
GASTEIGER

@<TRIPOS>ATOM
      1 C          61.9379   90.6528   11.2468 C.ar    1  UNL1        0.0951
      2 C          62.8892   91.2492   10.2521 C.ar    1  UNL1        0.1454
      3 F          62.4664   91.4284    8.8242 F       1  UNL1       -0.2040
      4 C          64.2634   91.6662   10.6854 C.ar    1  UNL1        0.0312
      5 C          64.6863   91.4869   12.1134 C.ar    1  UNL1        0.0204
      6 C          63.7349   90.8906   13.1080 C.ar    1  UNL1        0.0924
      7 C          62.3607   90.4735   12.6747 C.ar    1  UNL1        0.1598
      8 F          61.4095   89.8772   13.6694 F       1  UNL1       -0.2026
      9 C          60.5637   90.2358   10.8135 C.2     1  UNL1        0.2036
     10 O          59.3717   90.5988   11.6484 O.2     1  UNL1       -0.2863
     11 C          61.9050   85.7030    9.6424 C.2     1  UNL1        0.0322
     12 C          61.5145   85.3231    8.2449 C.2     1  UNL1        0.2321
     13 N          60.7886   86.3064    7.3754 N.2     1  UNL1       -0.0311
     14 C          60.4533   87.6698    7.9034 C.2     1  UNL1        0.3721
     15 N          59.7498   88.8410    7.2840 N.2     1  UNL1       -0.0307
     16 C          59.7056   89.9447    8.2987 C.2     1  UNL1        0.2390
     17 C          60.3817   89.4557    9.5452 C.2     1  UNL1        0.0896
     18 C          60.8437   88.0498    9.3009 C.2     1  UNL1        0.0774
     19 C          61.5696   87.0664   10.1704 C.3     1  UNL1        0.0647
     20 C          64.0826   82.7529   12.2510 C.ar    1  UNL1        0.3201
     21 N          63.0817   83.6925   12.8554 N.ar    1  UNL1       -0.1927
     22 C          62.3558   84.6759   11.9859 C.ar    1  UNL1        0.1050
     23 C          62.6309   84.7197   10.5120 C.ar    1  UNL1        0.0386
     24 C          63.6318   83.7800    9.9076 C.ar    1  UNL1        0.1050
     25 N          64.3577   82.7967   10.7771 N.ar    1  UNL1       -0.1927
     26 C          64.0358   80.7686   13.9274 C.3     1  UNL1        0.2559
     27 O          64.8085   81.7695   13.1205 O.3     1  UNL1       -0.4426
     28 N          64.1577   90.7113   14.5360 N.pl3   1  UNL1       -0.2128
     29 H          64.6042   91.4475   15.0133 H       1  UNL1        0.1738
     30 S          63.9003   89.4101   15.2366 S.O2    1  UNL1        0.0737
     31 O          63.1633   90.1395   16.3204 O.2     1  UNL1       -0.1499
     32 O          64.6374   88.6807   14.1527 O.2     1  UNL1       -0.1499
     33 C          63.6429   88.1090   15.9372 C.ar    1  UNL1        0.1274
     34 C          62.8939   88.0922   17.2366 C.ar    1  UNL1        0.0203
     35 C          62.6365   86.7910   17.9372 C.ar    1  UNL1        0.0037
     36 C          63.1282   85.5067   17.3383 C.ar    1  UNL1        0.0297
     37 C          63.8772   85.5235   16.0388 C.ar    1  UNL1        0.1415
     38 F          64.3689   84.2391   15.4399 F       1  UNL1       -0.2041
     39 C          64.1346   86.8246   15.3383 C.ar    1  UNL1        0.0498
@<TRIPOS>BOND
     1    26    27    1
     2    27    20    1
     3    20    21   ar
     4    21    22   ar
     5    22    23   ar
     6    23    11    1
     7    11    12    2
     8    12    13    1
     9    13    14    2
    10    14    15    1
    11    15    16    2
    12    16    17    1
    13    17     9    1
    14     9    10    2
    15     9     1    1
    16     1     2   ar
    17     2     3    1
    18     2     4   ar
    19     4     5   ar
    20     5     6   ar
    21     6    28    1
    22    28    30    1
    23    30    31    2
    24    30    32    2
    25    30    33    1
    26    33    34   ar
    27    34    35   ar
    28    35    36   ar
    29    36    37   ar
    30    37    38    1
    31    37    39   ar
    32     6     7   ar
    33     7     8    1
    34    17    18    2
    35    18    19    1
    36    23    24   ar
    37    24    25   ar
    38    25    20   ar
    39    19    11    1
    40    18    14    1
    41     7     1   ar
    42    39    33   ar
    43    28    29    1
@<TRIPOS>MOLECULE
*****
 39 43 0 0 0
SMALL
GASTEIGER

@<TRIPOS>ATOM
      1 C          64.1978   86.2329   15.6726 C.ar    1  UNL1        0.0951
      2 C          63.2162   85.6324   16.6348 C.ar    1  UNL1        0.1454
      3 F          63.1789   84.1468   16.8388 F       1  UNL1       -0.2040
      4 C          62.2718   86.5174   17.3930 C.ar    1  UNL1        0.0312
      5 C          62.3091   88.0030   17.1890 C.ar    1  UNL1        0.0204
      6 C          63.2907   88.6035   16.2269 C.ar    1  UNL1        0.0924
      7 C          64.2350   87.7185   15.4686 C.ar    1  UNL1        0.1598
      8 F          65.2166   88.3191   14.5065 F       1  UNL1       -0.2026
      9 C          65.1421   85.3478   14.9144 C.2     1  UNL1        0.2036
     10 O          66.6122   85.6453   14.9145 O.2     1  UNL1       -0.2863
     11 C          62.2286   85.1014   11.0199 C.2     1  UNL1        0.0322
     12 C          61.9545   83.6919   10.5861 C.2     1  UNL1        0.2321
     13 N          62.5608   82.5445   11.3382 N.2     1  UNL1       -0.0311
     14 C          63.4412   82.8065   12.5241 C.2     1  UNL1        0.3721
     15 N          64.1728   81.8846   13.4542 N.2     1  UNL1       -0.0307
     16 C          64.8990   82.7244   14.4628 C.2     1  UNL1        0.2390
     17 C          64.6162   84.1653   14.1561 C.2     1  UNL1        0.0896
     18 C          63.7152   84.2160   12.9579 C.2     1  UNL1        0.0774
     19 C          63.1089   85.3634   12.2058 C.3     1  UNL1        0.0647
     20 C          60.4097   88.5441    8.7638 C.ar    1  UNL1        0.3201
     21 N          60.2659   87.1454    8.2413 N.ar    1  UNL1       -0.1927
     22 C          60.8722   85.9978    8.9934 C.ar    1  UNL1        0.1050
     23 C          61.6223   86.2490   10.2679 C.ar    1  UNL1        0.0386
     24 C          61.7661   87.6477   10.7903 C.ar    1  UNL1        0.1050
     25 N          61.1598   88.7952   10.0383 N.ar    1  UNL1       -0.1927
     26 C          59.3708   89.5097    6.5871 C.3     1  UNL1        0.2559
     27 O          59.8034   89.6916    8.0117 O.3     1  UNL1       -0.4426
     28 N          63.3279   90.0891   16.0229 N.pl3   1  UNL1       -0.2128
     29 H          63.0665   90.6932   16.7550 H       1  UNL1        0.1738
     30 S          63.7635   90.6543   14.7034 S.O2    1  UNL1        0.0737
     31 O          64.9530   91.2837   15.3656 O.2     1  UNL1       -0.1499
     32 O          62.5739   90.0248   14.0411 O.2     1  UNL1       -0.1499
     33 C          64.1990   91.2193   13.3839 C.ar    1  UNL1        0.1274
     34 C          65.4520   92.0392   13.2960 C.ar    1  UNL1        0.0203
     35 C          65.8875   92.6043   11.9765 C.ar    1  UNL1        0.0037
     36 C          65.0699   92.3495   10.7449 C.ar    1  UNL1        0.0297
     37 C          63.8169   91.5297   10.8329 C.ar    1  UNL1        0.1415
     38 F          62.9993   91.2749    9.6014 F       1  UNL1       -0.2041
     39 C          63.3814   90.9646   12.1524 C.ar    1  UNL1        0.0498
@<TRIPOS>BOND
     1    26    27    1
     2    27    20    1
     3    20    21   ar
     4    21    22   ar
     5    22    23   ar
     6    23    11    1
     7    11    12    2
     8    12    13    1
     9    13    14    2
    10    14    15    1
    11    15    16    2
    12    16    17    1
    13    17     9    1
    14     9    10    2
    15     9     1    1
    16     1     2   ar
    17     2     3    1
    18     2     4   ar
    19     4     5   ar
    20     5     6   ar
    21     6    28    1
    22    28    30    1
    23    30    31    2
    24    30    32    2
    25    30    33    1
    26    33    34   ar
    27    34    35   ar
    28    35    36   ar
    29    36    37   ar
    30    37    38    1
    31    37    39   ar
    32     6     7   ar
    33     7     8    1
    34    17    18    2
    35    18    19    1
    36    23    24   ar
    37    24    25   ar
    38    25    20   ar
    39    19    11    1
    40    18    14    1
    41     7     1   ar
    42    39    33   ar
    43    28    29    1
