@<TRIPOS>MOLECULE
*****
 32 35 0 0 0
SMALL
GASTEIGER

@<TRIPOS>ATOM
      1 O          64.5732   89.3998   14.9076 O.2     1  UNL1       -0.2742
      2 C          63.8759   89.0505   13.6263 C.2     1  UNL1        0.2335
      3 N          63.7139   87.6135   13.2282 N.am    1  UNL1       -0.2755
      4 C          63.0166   87.2642   11.9468 C.3     1  UNL1        0.1148
      5 C          62.8545   85.8271   11.5487 C.3     1  UNL1        0.1123
      6 N          63.3898   84.7393   12.4319 N.pl3   1  UNL1       -0.3041
      7 C          64.0871   85.0885   13.7132 C.3     1  UNL1        0.1123
      8 C          64.2491   86.5256   14.1114 C.3     1  UNL1        0.1148
      9 C          63.2278   83.3022   12.0338 C.ar    1  UNL1        0.0479
     10 C          62.6357   82.3186   12.9993 C.ar    1  UNL1        0.0145
     11 C          62.4737   80.8815   12.6012 C.ar    1  UNL1        0.0051
     12 C          62.9037   80.4280   11.2376 C.ar    1  UNL1        0.0715
     13 C          63.4957   81.4115   10.2721 C.ar    1  UNL1        0.0051
     14 C          63.6577   82.8486   10.6702 C.ar    1  UNL1        0.0145
     15 C          62.7417   78.9909   10.8395 C.3     1  UNL1        0.4186
     16 F          62.5796   77.5538   10.4413 F       1  UNL1       -0.1659
     17 F          63.0501   79.3504    9.4163 F       1  UNL1       -0.1659
     18 F          62.4332   78.6314   12.2627 F       1  UNL1       -0.1659
     19 C          63.3407   90.1384   12.7431 C.3     1  UNL1        0.1226
     20 C          64.2277   91.2768   12.3340 C.ar    1  UNL1       -0.0097
     21 C          64.2747   91.7130   10.8996 C.ar    1  UNL1       -0.0026
     22 C          65.1617   92.8513   10.4906 C.ar    1  UNL1        0.0111
     23 C          66.0016   93.5536   11.5159 C.ar    1  UNL1        0.0577
     24 CL         66.8886   94.6920   11.1068 Cl      1  UNL1       -0.0822
     25 C          65.9545   93.1175   12.9503 C.ar    1  UNL1        0.0111
     26 C          65.0676   91.9791   13.3593 C.ar    1  UNL1       -0.0026
     27 C          61.9185   90.0879   12.2689 C.ar    1  UNL1        0.0094
     28 C          61.5836   90.4761   10.8593 C.ar    1  UNL1       -0.0004
     29 C          60.1613   90.4256   10.3852 C.ar    1  UNL1        0.0204
     30 C          59.0741   89.9868   11.3207 C.ar    1  UNL1        0.0989
     31 N          59.4090   89.5985   12.7304 N.ar    1  UNL1       -0.2426
     32 C          60.8311   89.6491   13.2045 C.ar    1  UNL1        0.0954
@<TRIPOS>BOND
     1     1     2    2
     2    19     2    1
     3    19    20    1
     4    20    21   ar
     5    21    22   ar
     6    22    23   ar
     7    23    24    1
     8    23    25   ar
     9    25    26   ar
    10    19    27    1
    11    27    28   ar
    12    28    29   ar
    13    29    30   ar
    14    30    31   ar
    15    31    32   ar
    16     2     3   am
    17     3     4    1
    18     4     5    1
    19     5     6    1
    20     6     9    1
    21     9    10   ar
    22    10    11   ar
    23    11    12   ar
    24    12    15    1
    25    15    16    1
    26    15    17    1
    27    15    18    1
    28    12    13   ar
    29    13    14   ar
    30     6     7    1
    31     7     8    1
    32    26    20   ar
    33    32    27   ar
    34     8     3    1
    35    14     9   ar
@<TRIPOS>MOLECULE
*****
 32 35 0 0 0
SMALL
GASTEIGER

@<TRIPOS>ATOM
      1 O          63.5635   88.9538   16.8118 O.2     1  UNL1       -0.2742
      2 C          63.7325   88.7871   15.3306 C.2     1  UNL1        0.2335
      3 N          63.5913   87.4300   14.7077 N.am    1  UNL1       -0.2755
      4 C          63.7603   87.2633   13.2265 C.3     1  UNL1        0.1148
      5 C          63.6191   85.9062   12.6035 C.3     1  UNL1        0.1123
      6 N          63.3090   84.7156   13.4616 N.pl3   1  UNL1       -0.3041
      7 C          63.1400   84.8822   14.9427 C.3     1  UNL1        0.1123
      8 C          63.2812   86.2394   15.5658 C.3     1  UNL1        0.1148
      9 C          63.1678   83.3585   12.8386 C.ar    1  UNL1        0.0479
     10 C          62.6164   82.2180   13.6421 C.ar    1  UNL1        0.0145
     11 C          62.4752   80.8609   13.0191 C.ar    1  UNL1        0.0051
     12 C          62.8854   80.6441   11.5927 C.ar    1  UNL1        0.0715
     13 C          63.4368   81.7844   10.7892 C.ar    1  UNL1        0.0051
     14 C          63.5780   83.1416   11.4122 C.ar    1  UNL1        0.0145
     15 C          62.7443   79.2869   10.9697 C.3     1  UNL1        0.4186
     16 F          62.6031   77.9297   10.3467 F       1  UNL1       -0.1659
     17 F          62.5199   78.6875   12.3263 F       1  UNL1       -0.1659
     18 F          62.9686   79.8863    9.6131 F       1  UNL1       -0.1659
     19 C          64.0427   89.9777   14.4725 C.3     1  UNL1        0.1226
     20 C          65.1315   90.9283   14.8739 C.ar    1  UNL1       -0.0097
     21 C          66.4565   90.8904   14.1720 C.ar    1  UNL1       -0.0026
     22 C          67.5453   91.8409   14.5733 C.ar    1  UNL1        0.0111
     23 C          67.3089   92.8293   15.6767 C.ar    1  UNL1        0.0577
     24 CL         68.3978   93.7798   16.0780 Cl      1  UNL1       -0.0822
     25 C          65.9839   92.8671   16.3786 C.ar    1  UNL1        0.0111
     26 C          64.8952   91.9166   15.9772 C.ar    1  UNL1       -0.0026
     27 C          63.2641   90.2178   13.2131 C.ar    1  UNL1        0.0094
     28 C          63.9231   90.8774   12.0382 C.ar    1  UNL1       -0.0004
     29 C          63.1444   91.1174   10.7787 C.ar    1  UNL1        0.0204
     30 C          61.7068   90.6979   10.6943 C.ar    1  UNL1        0.0989
     31 N          61.0478   90.0383   11.8693 N.ar    1  UNL1       -0.2426
     32 C          61.8264   89.7982   13.1287 C.ar    1  UNL1        0.0954
@<TRIPOS>BOND
     1     1     2    2
     2    19     2    1
     3    19    20    1
     4    20    21   ar
     5    21    22   ar
     6    22    23   ar
     7    23    24    1
     8    23    25   ar
     9    25    26   ar
    10    19    27    1
    11    27    28   ar
    12    28    29   ar
    13    29    30   ar
    14    30    31   ar
    15    31    32   ar
    16     2     3   am
    17     3     4    1
    18     4     5    1
    19     5     6    1
    20     6     9    1
    21     9    10   ar
    22    10    11   ar
    23    11    12   ar
    24    12    15    1
    25    15    16    1
    26    15    17    1
    27    15    18    1
    28    12    13   ar
    29    13    14   ar
    30     6     7    1
    31     7     8    1
    32    26    20   ar
    33    32    27   ar
    34     8     3    1
    35    14     9   ar
@<TRIPOS>MOLECULE
*****
 32 35 0 0 0
SMALL
GASTEIGER

@<TRIPOS>ATOM
      1 O          64.3489   89.2945   15.6932 O.2     1  UNL1       -0.2742
      2 C          63.9923   89.0267   14.2610 C.2     1  UNL1        0.2335
      3 N          63.8076   87.6163   13.7852 N.am    1  UNL1       -0.2755
      4 C          63.4509   87.3485   12.3530 C.3     1  UNL1        0.1148
      5 C          63.2662   85.9380   11.8772 C.3     1  UNL1        0.1123
      6 N          63.4382   84.7953   12.8335 N.pl3   1  UNL1       -0.3041
      7 C          63.7949   85.0630   14.2657 C.3     1  UNL1        0.1123
      8 C          63.9796   86.4735   14.7415 C.3     1  UNL1        0.1148
      9 C          63.2535   83.3848   12.3577 C.ar    1  UNL1        0.0479
     10 C          62.7043   82.3450   13.2890 C.ar    1  UNL1        0.0145
     11 C          62.5196   80.9345   12.8132 C.ar    1  UNL1        0.0051
     12 C          62.8841   80.5638   11.4062 C.ar    1  UNL1        0.0715
     13 C          63.4333   81.6036   10.4749 C.ar    1  UNL1        0.0051
     14 C          63.6180   83.0141   10.9507 C.ar    1  UNL1        0.0145
     15 C          62.6994   79.1533   10.9304 C.3     1  UNL1        0.4186
     16 F          62.5148   77.7428   10.4545 F       1  UNL1       -0.1659
     17 F          62.9379   79.5985    9.5180 F       1  UNL1       -0.1659
     18 F          62.4610   78.7081   12.3427 F       1  UNL1       -0.1659
     19 C          63.8203   90.1695   13.3046 C.3     1  UNL1        0.1226
     20 C          62.7743   90.0986   12.2317 C.ar    1  UNL1       -0.0097
     21 C          61.3268   89.9686   12.6029 C.ar    1  UNL1       -0.0026
     22 C          60.2810   89.8977   11.5300 C.ar    1  UNL1        0.0111
     23 C          60.6826   89.9570   10.0860 C.ar    1  UNL1        0.0577
     24 CL         59.6366   89.8861    9.0131 Cl      1  UNL1       -0.0822
     25 C          62.1301   90.0871    9.7148 C.ar    1  UNL1        0.0111
     26 C          63.1759   90.1579   10.7877 C.ar    1  UNL1       -0.0026
     27 C          64.6942   91.3830   13.4211 C.ar    1  UNL1        0.0094
     28 C          65.0629   92.1623   12.1937 C.ar    1  UNL1       -0.0004
     29 C          65.9369   93.3759   12.3103 C.ar    1  UNL1        0.0204
     30 C          66.4420   93.8101   13.6542 C.ar    1  UNL1        0.0989
     31 N          66.0732   93.0307   14.8817 N.ar    1  UNL1       -0.2426
     32 C          65.1993   91.8172   14.7652 C.ar    1  UNL1        0.0954
@<TRIPOS>BOND
     1     1     2    2
     2    19     2    1
     3    19    20    1
     4    20    21   ar
     5    21    22   ar
     6    22    23   ar
     7    23    24    1
     8    23    25   ar
     9    25    26   ar
    10    19    27    1
    11    27    28   ar
    12    28    29   ar
    13    29    30   ar
    14    30    31   ar
    15    31    32   ar
    16     2     3   am
    17     3     4    1
    18     4     5    1
    19     5     6    1
    20     6     9    1
    21     9    10   ar
    22    10    11   ar
    23    11    12   ar
    24    12    15    1
    25    15    16    1
    26    15    17    1
    27    15    18    1
    28    12    13   ar
    29    13    14   ar
    30     6     7    1
    31     7     8    1
    32    26    20   ar
    33    32    27   ar
    34     8     3    1
    35    14     9   ar
@<TRIPOS>MOLECULE
*****
 32 35 0 0 0
SMALL
GASTEIGER

@<TRIPOS>ATOM
      1 O          59.2981   88.2665   12.3065 O.2     1  UNL1       -0.2742
      2 C          60.6369   88.2795   11.6301 C.2     1  UNL1        0.2335
      3 N          61.7806   89.0304   12.2450 N.am    1  UNL1       -0.2755
      4 C          63.1194   89.0435   11.5686 C.3     1  UNL1        0.1148
      5 C          64.2630   89.7944   12.1835 C.3     1  UNL1        0.1123
      6 N          64.0680   90.5323   13.4748 N.pl3   1  UNL1       -0.3041
      7 C          62.7292   90.5192   14.1512 C.3     1  UNL1        0.1123
      8 C          61.5855   89.7683   13.5363 C.3     1  UNL1        0.1148
      9 C          65.2116   91.2832   14.0897 C.ar    1  UNL1        0.0479
     10 C          65.1372   91.7215   15.5224 C.ar    1  UNL1        0.0145
     11 C          66.2809   92.4724   16.1373 C.ar    1  UNL1        0.0051
     12 C          67.4990   92.7851   15.3196 C.ar    1  UNL1        0.0715
     13 C          67.5734   92.3468   13.8870 C.ar    1  UNL1        0.0051
     14 C          66.4297   91.5958   13.2720 C.ar    1  UNL1        0.0145
     15 C          68.6426   93.5360   15.9345 C.3     1  UNL1        0.4186
     16 F          69.7863   94.2869   16.5494 F       1  UNL1       -0.1659
     17 F          68.1434   94.8060   15.3119 F       1  UNL1       -0.1659
     18 F          69.1418   92.2659   16.5571 F       1  UNL1       -0.1659
     19 C          60.8320   87.5417   10.3388 C.3     1  UNL1        0.1226
     20 C          61.7170   86.3314   10.2928 C.ar    1  UNL1       -0.0097
     21 C          62.4053   85.9537    9.0147 C.ar    1  UNL1       -0.0026
     22 C          63.2903   84.7435    8.9688 C.ar    1  UNL1        0.0111
     23 C          63.4870   83.9110   10.2010 C.ar    1  UNL1        0.0577
     24 CL         64.3721   82.7008   10.1550 Cl      1  UNL1       -0.0822
     25 C          62.7988   84.2887   11.4791 C.ar    1  UNL1        0.0111
     26 C          61.9138   85.4990   11.5250 C.ar    1  UNL1       -0.0026
     27 C          60.1421   88.0141    9.0935 C.ar    1  UNL1        0.0094
     28 C          60.4101   89.3917    8.5641 C.ar    1  UNL1       -0.0004
     29 C          59.7202   89.8641    7.3187 C.ar    1  UNL1        0.0204
     30 C          58.7622   88.9588    6.6028 C.ar    1  UNL1        0.0989
     31 N          58.4941   87.5811    7.1321 N.ar    1  UNL1       -0.2426
     32 C          59.1840   87.1087    8.3774 C.ar    1  UNL1        0.0954
@<TRIPOS>BOND
     1     1     2    2
     2    19     2    1
     3    19    20    1
     4    20    21   ar
     5    21    22   ar
     6    22    23   ar
     7    23    24    1
     8    23    25   ar
     9    25    26   ar
    10    19    27    1
    11    27    28   ar
    12    28    29   ar
    13    29    30   ar
    14    30    31   ar
    15    31    32   ar
    16     2     3   am
    17     3     4    1
    18     4     5    1
    19     5     6    1
    20     6     9    1
    21     9    10   ar
    22    10    11   ar
    23    11    12   ar
    24    12    15    1
    25    15    16    1
    26    15    17    1
    27    15    18    1
    28    12    13   ar
    29    13    14   ar
    30     6     7    1
    31     7     8    1
    32    26    20   ar
    33    32    27   ar
    34     8     3    1
    35    14     9   ar
@<TRIPOS>MOLECULE
*****
 32 35 0 0 0
SMALL
GASTEIGER

@<TRIPOS>ATOM
      1 O          62.3410   91.4140   10.4819 O.2     1  UNL1       -0.2742
      2 C          63.2529   90.7496   11.4704 C.2     1  UNL1        0.2335
      3 N          63.0995   89.2873   11.7670 N.am    1  UNL1       -0.2755
      4 C          64.0114   88.6228   12.7555 C.3     1  UNL1        0.1148
      5 C          63.8580   87.1605   13.0522 C.3     1  UNL1        0.1123
      6 N          62.7927   86.3626   12.3605 N.pl3   1  UNL1       -0.3041
      7 C          61.8809   87.0269   11.3721 C.3     1  UNL1        0.1123
      8 C          62.0342   88.4893   11.0753 C.3     1  UNL1        0.1148
      9 C          62.6393   84.9002   12.6572 C.ar    1  UNL1        0.0479
     10 C          62.6700   83.9008   11.5390 C.ar    1  UNL1        0.0145
     11 C          62.5166   82.4385   11.8357 C.ar    1  UNL1        0.0051
     12 C          62.3325   81.9755   13.2505 C.ar    1  UNL1        0.0715
     13 C          62.3018   82.9749   14.3687 C.ar    1  UNL1        0.0051
     14 C          62.4552   84.4373   14.0720 C.ar    1  UNL1        0.0145
     15 C          62.1791   80.5132   13.5472 C.3     1  UNL1        0.4186
     16 F          62.0257   79.0508   13.8439 F       1  UNL1       -0.1659
     17 F          61.1596   80.8337   14.5997 F       1  UNL1       -0.1659
     18 F          63.1987   80.1927   12.4947 F       1  UNL1       -0.1659
     19 C          64.3182   91.5475   12.1621 C.3     1  UNL1        0.1226
     20 C          65.3177   92.3224   11.3554 C.ar    1  UNL1       -0.0097
     21 C          65.0125   93.7292   10.9341 C.ar    1  UNL1       -0.0026
     22 C          66.0119   94.5041   10.1274 C.ar    1  UNL1        0.0111
     23 C          67.3165   93.8720    9.7420 C.ar    1  UNL1        0.0577
     24 CL         68.3160   94.6469    8.9353 Cl      1  UNL1       -0.0822
     25 C          67.6217   92.4651   10.1633 C.ar    1  UNL1        0.0111
     26 C          66.6223   91.6903   10.9700 C.ar    1  UNL1       -0.0026
     27 C          64.3841   91.5705   13.6604 C.ar    1  UNL1        0.0094
     28 C          65.5485   92.2175   14.3501 C.ar    1  UNL1       -0.0004
     29 C          65.6143   92.2405   15.8485 C.ar    1  UNL1        0.0204
     30 C          64.5158   91.6166   16.6572 C.ar    1  UNL1        0.0989
     31 N          63.3515   90.9696   15.9675 N.ar    1  UNL1       -0.2426
     32 C          63.2856   90.9466   14.4692 C.ar    1  UNL1        0.0954
@<TRIPOS>BOND
     1     1     2    2
     2    19     2    1
     3    19    20    1
     4    20    21   ar
     5    21    22   ar
     6    22    23   ar
     7    23    24    1
     8    23    25   ar
     9    25    26   ar
    10    19    27    1
    11    27    28   ar
    12    28    29   ar
    13    29    30   ar
    14    30    31   ar
    15    31    32   ar
    16     2     3   am
    17     3     4    1
    18     4     5    1
    19     5     6    1
    20     6     9    1
    21     9    10   ar
    22    10    11   ar
    23    11    12   ar
    24    12    15    1
    25    15    16    1
    26    15    17    1
    27    15    18    1
    28    12    13   ar
    29    13    14   ar
    30     6     7    1
    31     7     8    1
    32    26    20   ar
    33    32    27   ar
    34     8     3    1
    35    14     9   ar
@<TRIPOS>MOLECULE
*****
 32 35 0 0 0
SMALL
GASTEIGER

@<TRIPOS>ATOM
      1 O          61.9341   90.0784   10.4766 O.2     1  UNL1       -0.2742
      2 C          62.6922   89.2937   11.5059 C.2     1  UNL1        0.2335
      3 N          62.7126   87.7952   11.4415 N.am    1  UNL1       -0.2755
      4 C          63.4707   87.0105   12.4709 C.3     1  UNL1        0.1148
      5 C          63.4911   85.5120   12.4064 C.3     1  UNL1        0.1123
      6 N          62.7533   84.7982   11.3127 N.pl3   1  UNL1       -0.3041
      7 C          61.9952   85.5829   10.2834 C.3     1  UNL1        0.1123
      8 C          61.9748   87.0814   10.3478 C.3     1  UNL1        0.1148
      9 C          62.7736   83.2998   11.2483 C.ar    1  UNL1        0.0479
     10 C          62.2998   82.4922   12.4202 C.ar    1  UNL1        0.0145
     11 C          62.3202   80.9937   12.3558 C.ar    1  UNL1        0.0051
     12 C          62.8143   80.3028   11.1195 C.ar    1  UNL1        0.0715
     13 C          63.2881   81.1103    9.9476 C.ar    1  UNL1        0.0051
     14 C          63.2678   82.6089   10.0120 C.ar    1  UNL1        0.0145
     15 C          62.8347   78.8044   11.0551 C.3     1  UNL1        0.4186
     16 F          62.8550   77.3058   10.9906 F       1  UNL1       -0.1659
     17 F          63.2546   78.8719    9.6167 F       1  UNL1       -0.1659
     18 F          62.4147   78.7368   12.4935 F       1  UNL1       -0.1659
     19 C          63.4300   90.0074   12.5997 C.3     1  UNL1        0.1226
     20 C          64.2555   91.2187   12.2809 C.ar    1  UNL1       -0.0097
     21 C          64.2526   91.7839   10.8915 C.ar    1  UNL1       -0.0026
     22 C          65.0781   92.9950   10.5728 C.ar    1  UNL1        0.0111
     23 C          65.9065   93.6410   11.6436 C.ar    1  UNL1        0.0577
     24 CL         66.7321   94.8522   11.3249 Cl      1  UNL1       -0.0822
     25 C          65.9094   93.0758   13.0330 C.ar    1  UNL1        0.0111
     26 C          65.0839   91.8646   13.3517 C.ar    1  UNL1       -0.0026
     27 C          63.3423   89.5100   14.0120 C.ar    1  UNL1        0.0094
     28 C          64.3075   88.4721   14.5030 C.ar    1  UNL1       -0.0004
     29 C          64.2197   87.9747   15.9154 C.ar    1  UNL1        0.0204
     30 C          63.1668   88.5153   16.8369 C.ar    1  UNL1        0.0989
     31 N          62.2016   89.5532   16.3459 N.ar    1  UNL1       -0.2426
     32 C          62.2893   90.0506   14.9336 C.ar    1  UNL1        0.0954
@<TRIPOS>BOND
     1     1     2    2
     2    19     2    1
     3    19    20    1
     4    20    21   ar
     5    21    22   ar
     6    22    23   ar
     7    23    24    1
     8    23    25   ar
     9    25    26   ar
    10    19    27    1
    11    27    28   ar
    12    28    29   ar
    13    29    30   ar
    14    30    31   ar
    15    31    32   ar
    16     2     3   am
    17     3     4    1
    18     4     5    1
    19     5     6    1
    20     6     9    1
    21     9    10   ar
    22    10    11   ar
    23    11    12   ar
    24    12    15    1
    25    15    16    1
    26    15    17    1
    27    15    18    1
    28    12    13   ar
    29    13    14   ar
    30     6     7    1
    31     7     8    1
    32    26    20   ar
    33    32    27   ar
    34     8     3    1
    35    14     9   ar
@<TRIPOS>MOLECULE
*****
 32 35 0 0 0
SMALL
GASTEIGER

@<TRIPOS>ATOM
      1 O          58.7643   88.1490   10.5165 O.2     1  UNL1       -0.2742
      2 C          60.0522   88.5069    9.8360 C.2     1  UNL1        0.2335
      3 N          61.1409   89.1950   10.6051 N.am    1  UNL1       -0.2755
      4 C          62.4288   89.5529    9.9246 C.3     1  UNL1        0.1148
      5 C          63.5174   90.2409   10.6937 C.3     1  UNL1        0.1123
      6 N          63.3181   90.5710   12.1432 N.pl3   1  UNL1       -0.3041
      7 C          62.0302   90.2131   12.8238 C.3     1  UNL1        0.1123
      8 C          60.9416   89.5250   12.0547 C.3     1  UNL1        0.1148
      9 C          64.4068   91.2590   12.9123 C.ar    1  UNL1        0.0479
     10 C          64.6659   90.8860   14.3420 C.ar    1  UNL1        0.0145
     11 C          65.7545   91.5740   15.1110 C.ar    1  UNL1        0.0051
     12 C          66.5840   92.6351   14.4506 C.ar    1  UNL1        0.0715
     13 C          66.3249   93.0081   13.0210 C.ar    1  UNL1        0.0051
     14 C          65.2362   92.3200   12.2519 C.ar    1  UNL1        0.0145
     15 C          67.6726   93.3231   15.2197 C.3     1  UNL1        0.4186
     16 F          68.7613   94.0111   15.9888 F       1  UNL1       -0.1659
     17 F          68.1173   92.0015   15.7725 F       1  UNL1       -0.1659
     18 F          67.2279   94.6446   14.6668 F       1  UNL1       -0.1659
     19 C          60.2515   88.1769    8.3864 C.3     1  UNL1        0.1226
     20 C          59.7551   89.1168    7.3280 C.ar    1  UNL1       -0.0097
     21 C          60.7266   89.9681    6.5654 C.ar    1  UNL1       -0.0026
     22 C          60.2301   90.9080    5.5071 C.ar    1  UNL1        0.0111
     23 C          58.7622   90.9967    5.2114 C.ar    1  UNL1        0.0577
     24 CL         58.2658   91.9366    4.1531 Cl      1  UNL1       -0.0822
     25 C          57.7908   90.1454    5.9740 C.ar    1  UNL1        0.0111
     26 C          58.2872   89.2055    7.0323 C.ar    1  UNL1       -0.0026
     27 C          60.9472   86.9069    7.9952 C.ar    1  UNL1        0.0094
     28 C          62.2683   86.5547    8.6121 C.ar    1  UNL1       -0.0004
     29 C          62.9640   85.2846    8.2208 C.ar    1  UNL1        0.0204
     30 C          62.3386   84.3668    7.2126 C.ar    1  UNL1        0.0989
     31 N          61.0175   84.7190    6.5957 N.ar    1  UNL1       -0.2426
     32 C          60.3218   85.9890    6.9869 C.ar    1  UNL1        0.0954
@<TRIPOS>BOND
     1     1     2    2
     2    19     2    1
     3    19    20    1
     4    20    21   ar
     5    21    22   ar
     6    22    23   ar
     7    23    24    1
     8    23    25   ar
     9    25    26   ar
    10    19    27    1
    11    27    28   ar
    12    28    29   ar
    13    29    30   ar
    14    30    31   ar
    15    31    32   ar
    16     2     3   am
    17     3     4    1
    18     4     5    1
    19     5     6    1
    20     6     9    1
    21     9    10   ar
    22    10    11   ar
    23    11    12   ar
    24    12    15    1
    25    15    16    1
    26    15    17    1
    27    15    18    1
    28    12    13   ar
    29    13    14   ar
    30     6     7    1
    31     7     8    1
    32    26    20   ar
    33    32    27   ar
    34     8     3    1
    35    14     9   ar
