@<TRIPOS>MOLECULE
*****
 45 50 0 0 0
SMALL
GASTEIGER

@<TRIPOS>ATOM
      1 C          61.1102   89.4279    9.8581 C.2     1  UNL1        0.2461
      2 O          60.1619   88.8952   10.8910 O.2     1  UNL1       -0.2701
      3 N          60.9370   89.0524    8.4162 N.am    1  UNL1       -0.2964
      4 H          61.5594   89.4020    7.7383 H       1  UNL1        0.1501
      5 C          64.9435   90.0302   14.3004 C.3     1  UNL1        0.1305
      6 N          64.9830   91.0082   13.1638 N.ar    1  UNL1       -0.3242
      7 C          65.9271   92.1660   13.0293 C.ar    1  UNL1        0.0738
      8 C          65.6130   92.8734   11.7444 C.ar    1  UNL1       -0.0038
      9 C          64.4748   92.1527   11.0848 C.ar    1  UNL1        0.0133
     10 C          63.7426   92.3972    9.7987 C.ar    1  UNL1        0.0013
     11 C          62.6211   91.4890    9.3898 C.ar    1  UNL1        0.0046
     12 C          62.2318   90.3362   10.2670 C.ar    1  UNL1        0.0548
     13 C          62.9639   90.0917   11.5531 C.ar    1  UNL1        0.0217
     14 C          64.0855   90.9999   11.9620 C.ar    1  UNL1        0.0598
     15 C          66.9974   92.5492   14.0080 C.ar    1  UNL1        0.0969
     16 C          66.6232   93.1301   15.3393 C.ar    1  UNL1        0.0229
     17 C          67.6935   93.5133   16.3179 C.ar    1  UNL1        0.0328
     18 C          69.1379   93.3156   15.9652 C.ar    1  UNL1        0.1592
     19 F          70.2082   93.6989   16.9438 F       1  UNL1       -0.2025
     20 C          69.5121   92.7348   14.6339 C.ar    1  UNL1        0.1284
     21 N          68.4418   92.3516   13.6552 N.ar    1  UNL1       -0.2400
     22 C          66.3140   94.0882   11.2126 C.3     1  UNL1        0.0238
     23 C          66.2028   95.4804   11.7593 C.3     1  UNL1        0.0044
     24 C          67.0694   96.3768   10.9252 C.3     1  UNL1        0.0003
     25 C          67.7161   95.5382    9.8628 C.3     1  UNL1        0.0003
     26 C          67.2493   94.1238   10.0404 C.3     1  UNL1        0.0044
     27 C          59.8154   88.1441    8.0073 C.3     1  UNL1        0.1260
     28 C          59.2757   89.2158    7.1073 C.3     1  UNL1        0.0270
     29 C          58.1541   88.3076    6.6983 C.3     1  UNL1        0.0043
     30 C          58.6938   87.2359    7.5983 C.3     1  UNL1        0.0270
     31 C          60.3550   87.0724    8.9073 C.2     1  UNL1        0.2419
     32 O          59.4270   86.3102    9.8062 O.2     1  UNL1       -0.2731
     33 N          61.8227   86.7627    8.9086 N.am    1  UNL1       -0.2826
     34 H          62.4318   87.2630    8.3186 H       1  UNL1        0.1549
     35 C          62.3624   85.6909    9.8086 C.ar    1  UNL1        0.0503
     36 C          63.2033   84.5868    9.2396 C.ar    1  UNL1        0.0147
     37 C          63.7429   83.5151   10.1396 C.ar    1  UNL1        0.0013
     38 C          63.4417   83.5474   11.6087 C.ar    1  UNL1        0.0001
     39 C          62.6008   84.6515   12.1778 C.ar    1  UNL1        0.0013
     40 C          62.0612   85.7233   11.2777 C.ar    1  UNL1        0.0147
     41 C          63.9814   82.4756   12.5088 C.2     1  UNL1        0.0012
     42 C          63.0554   81.4502   13.0929 C.2     1  UNL1        0.0151
     43 C          63.5951   80.3785   13.9929 C.2     1  UNL1        0.0729
     44 O          62.7794   79.1503   14.2694 O.co2   1  UNL1       -0.5446
     45 O          64.9503   80.5348   14.6164 O.co2   1  UNL1       -0.5446
@<TRIPOS>UNITY_ATOM_ATTR
44 1
charge -1
@<TRIPOS>BOND
     1     5     6    1
     2     6     7   ar
     3     7    15    1
     4    15    16   ar
     5    16    17   ar
     6    17    18   ar
     7    18    19    1
     8    18    20   ar
     9    20    21   ar
    10     7     8   ar
    11     8    22    1
    12    22    23    1
    13    23    24    1
    14    24    25    1
    15    25    26    1
    16     8     9   ar
    17     9    10   ar
    18    10    11   ar
    19    11    12   ar
    20    12     1    1
    21     1     2    2
    22     1     3   am
    23     3    27    1
    24    27    31    1
    25    31    32    2
    26    31    33   am
    27    33    35    1
    28    35    36   ar
    29    36    37   ar
    30    37    38   ar
    31    38    41    1
    32    41    42    2
    33    42    43    1
    34    43    44   ar
    35    43    45   ar
    36    38    39   ar
    37    39    40   ar
    38    27    28    1
    39    28    29    1
    40    29    30    1
    41    12    13   ar
    42    13    14   ar
    43    14     6   ar
    44    21    15   ar
    45    26    22    1
    46    14     9   ar
    47    30    27    1
    48    40    35   ar
    49     3     4    1
    50    33    34    1
@<TRIPOS>MOLECULE
*****
 45 50 0 0 0
SMALL
GASTEIGER

@<TRIPOS>ATOM
      1 C          58.9122   89.1621    6.7617 C.2     1  UNL1        0.2461
      2 O          57.4286   88.9555    6.6824 O.2     1  UNL1       -0.2701
      3 N          59.5602   90.2583    5.9690 N.am    1  UNL1       -0.2964
      4 H          60.5339   90.3938    6.0210 H       1  UNL1        0.1501
      5 C          61.2571   89.1799   12.1739 C.3     1  UNL1        0.1305
      6 N          61.4797   87.9921   11.2853 N.ar    1  UNL1       -0.3242
      7 C          62.2634   86.7624   11.6369 C.ar    1  UNL1        0.0738
      8 C          62.2258   85.8359   10.4579 C.ar    1  UNL1       -0.0038
      9 C          61.4189   86.4930    9.3775 C.ar    1  UNL1        0.0133
     10 C          61.0444   86.0501    7.9942 C.ar    1  UNL1        0.0013
     11 C          60.2088   86.9398    7.1223 C.ar    1  UNL1        0.0046
     12 C          59.7478   88.2724    7.6337 C.ar    1  UNL1        0.0548
     13 C          60.1222   88.7153    9.0170 C.ar    1  UNL1        0.0217
     14 C          60.9578   87.8257    9.8889 C.ar    1  UNL1        0.0598
     15 C          62.9620   86.5045   12.9390 C.ar    1  UNL1        0.0969
     16 C          63.8494   87.5566   13.5353 C.ar    1  UNL1        0.0229
     17 C          64.5480   87.2986   14.8374 C.ar    1  UNL1        0.0328
     18 C          64.3593   85.9886   15.5431 C.ar    1  UNL1        0.1592
     19 F          65.0579   85.7307   16.8452 F       1  UNL1       -0.2025
     20 C          63.4719   84.9365   14.9468 C.ar    1  UNL1        0.1284
     21 N          62.7733   85.1945   13.6448 N.ar    1  UNL1       -0.2400
     22 C          62.8801   84.4888   10.3739 C.3     1  UNL1        0.0238
     23 C          62.6297   83.3282   11.2904 C.3     1  UNL1        0.0044
     24 C          63.4946   82.1878   10.8416 C.3     1  UNL1        0.0003
     25 C          64.2797   82.6438    9.6475 C.3     1  UNL1        0.0003
     26 C          63.9000   84.0658    9.3584 C.3     1  UNL1        0.0044
     27 C          58.7246   91.1480    5.0970 C.3     1  UNL1        0.1260
     28 C          57.4826   90.6337    5.7625 C.3     1  UNL1        0.0270
     29 C          56.6470   91.5233    4.8906 C.3     1  UNL1        0.0043
     30 C          57.8890   92.0376    4.2251 C.3     1  UNL1        0.0270
     31 C          59.9666   91.6623    4.4315 C.2     1  UNL1        0.2419
     32 O          61.3160   91.2567    4.9460 O.2     1  UNL1       -0.2731
     33 N          59.8592   92.5820    3.2515 N.am    1  UNL1       -0.2826
     34 H          58.9736   92.8482    2.9138 H       1  UNL1        0.1549
     35 C          61.1013   93.0963    2.5860 C.ar    1  UNL1        0.0503
     36 C          61.0820   94.4215    1.8835 C.ar    1  UNL1        0.0147
     37 C          62.3240   94.9358    1.2180 C.ar    1  UNL1        0.0013
     38 C          63.5854   94.1249    1.2550 C.ar    1  UNL1        0.0001
     39 C          63.6048   92.7997    1.9575 C.ar    1  UNL1        0.0013
     40 C          62.3627   92.2854    2.6230 C.ar    1  UNL1        0.0147
     41 C          64.8274   94.6392    0.5895 C.2     1  UNL1        0.0012
     42 C          64.7672   95.8754   -0.2580 C.2     1  UNL1        0.0151
     43 C          66.0092   96.3897   -0.9235 C.2     1  UNL1        0.0729
     44 O          67.1693   96.8515   -0.0921 O.co2   1  UNL1       -0.5446
     45 O          66.0913   96.4421   -2.4203 O.co2   1  UNL1       -0.5446
@<TRIPOS>UNITY_ATOM_ATTR
44 1
charge -1
@<TRIPOS>BOND
     1     5     6    1
     2     6     7   ar
     3     7    15    1
     4    15    16   ar
     5    16    17   ar
     6    17    18   ar
     7    18    19    1
     8    18    20   ar
     9    20    21   ar
    10     7     8   ar
    11     8    22    1
    12    22    23    1
    13    23    24    1
    14    24    25    1
    15    25    26    1
    16     8     9   ar
    17     9    10   ar
    18    10    11   ar
    19    11    12   ar
    20    12     1    1
    21     1     2    2
    22     1     3   am
    23     3    27    1
    24    27    31    1
    25    31    32    2
    26    31    33   am
    27    33    35    1
    28    35    36   ar
    29    36    37   ar
    30    37    38   ar
    31    38    41    1
    32    41    42    2
    33    42    43    1
    34    43    44   ar
    35    43    45   ar
    36    38    39   ar
    37    39    40   ar
    38    27    28    1
    39    28    29    1
    40    29    30    1
    41    12    13   ar
    42    13    14   ar
    43    14     6   ar
    44    21    15   ar
    45    26    22    1
    46    14     9   ar
    47    30    27    1
    48    40    35   ar
    49     3     4    1
    50    33    34    1
@<TRIPOS>MOLECULE
*****
 45 50 0 0 0
SMALL
GASTEIGER

@<TRIPOS>ATOM
      1 C          59.3483   89.6375    7.1172 C.2     1  UNL1        0.2461
      2 O          58.3395   88.6419    6.6260 O.2     1  UNL1       -0.2701
      3 N          59.5058   90.9540    6.4158 N.am    1  UNL1       -0.2964
      4 H          60.1679   91.6074    6.7381 H       1  UNL1        0.1501
      5 C          61.2948   84.8975   10.0387 C.3     1  UNL1        0.1305
      6 N          61.6891   86.2634   10.5172 N.ar    1  UNL1       -0.3242
      7 C          62.5572   86.5658   11.7025 C.ar    1  UNL1        0.0738
      8 C          62.6890   88.0560   11.8122 C.ar    1  UNL1       -0.0038
      9 C          61.9024   88.6745   10.6947 C.ar    1  UNL1        0.0133
     10 C          61.6691   90.1034   10.3026 C.ar    1  UNL1        0.0013
     11 C          60.8177   90.4243    9.1101 C.ar    1  UNL1        0.0046
     12 C          60.1997   89.3164    8.3097 C.ar    1  UNL1        0.0548
     13 C          60.4331   87.8876    8.7019 C.ar    1  UNL1        0.0217
     14 C          61.2844   87.5666    9.8944 C.ar    1  UNL1        0.0598
     15 C          63.1834   85.5555   12.6174 C.ar    1  UNL1        0.0969
     16 C          63.9536   84.4020   12.0462 C.ar    1  UNL1        0.0229
     17 C          64.5798   83.3917   12.9611 C.ar    1  UNL1        0.0328
     18 C          64.4360   83.5349   14.4472 C.ar    1  UNL1        0.1592
     19 F          65.0622   82.5246   15.3622 F       1  UNL1       -0.2025
     20 C          63.6658   84.6883   15.0185 C.ar    1  UNL1        0.1284
     21 N          63.0396   85.6986   14.1036 N.ar    1  UNL1       -0.2400
     22 C          63.4703   88.7975   12.8561 C.3     1  UNL1        0.0238
     23 C          63.6592   90.2838   12.9259 C.3     1  UNL1        0.0044
     24 C          64.5055   90.5878   14.1265 C.3     1  UNL1        0.0003
     25 C          64.8396   89.2892   14.7987 C.3     1  UNL1        0.0003
     26 C          64.1998   88.1827   14.0137 C.3     1  UNL1        0.0044
     27 C          58.6544   91.2750    5.2232 C.3     1  UNL1        0.1260
     28 C          57.4397   90.7960    5.9615 C.3     1  UNL1        0.0270
     29 C          56.5883   91.1170    4.7690 C.3     1  UNL1        0.0043
     30 C          57.8030   91.5960    4.0307 C.3     1  UNL1        0.0270
     31 C          59.8690   91.7540    4.4849 C.2     1  UNL1        0.2419
     32 O          61.2302   91.2658    4.8838 O.2     1  UNL1       -0.2731
     33 N          59.7227   92.7212    3.3478 N.am    1  UNL1       -0.2826
     34 H          58.8293   93.0417    3.0860 H       1  UNL1        0.1549
     35 C          60.9374   93.2003    2.6095 C.ar    1  UNL1        0.0503
     36 C          62.1977   92.3871    2.6317 C.ar    1  UNL1        0.0147
     37 C          63.4124   92.8660    1.8935 C.ar    1  UNL1        0.0013
     38 C          63.3669   94.1582    1.1330 C.ar    1  UNL1        0.0001
     39 C          62.1066   94.9714    1.1108 C.ar    1  UNL1        0.0013
     40 C          60.8919   94.4924    1.8491 C.ar    1  UNL1        0.0147
     41 C          64.5816   94.6371    0.3948 C.2     1  UNL1        0.0012
     42 C          64.5378   95.9320   -0.3612 C.2     1  UNL1        0.0151
     43 C          65.7525   96.4109   -1.0994 C.2     1  UNL1        0.0729
     44 O          66.9681   96.8503   -0.3382 O.co2   1  UNL1       -0.5446
     45 O          65.7517   96.4505   -2.5989 O.co2   1  UNL1       -0.5446
@<TRIPOS>UNITY_ATOM_ATTR
44 1
charge -1
@<TRIPOS>BOND
     1     5     6    1
     2     6     7   ar
     3     7    15    1
     4    15    16   ar
     5    16    17   ar
     6    17    18   ar
     7    18    19    1
     8    18    20   ar
     9    20    21   ar
    10     7     8   ar
    11     8    22    1
    12    22    23    1
    13    23    24    1
    14    24    25    1
    15    25    26    1
    16     8     9   ar
    17     9    10   ar
    18    10    11   ar
    19    11    12   ar
    20    12     1    1
    21     1     2    2
    22     1     3   am
    23     3    27    1
    24    27    31    1
    25    31    32    2
    26    31    33   am
    27    33    35    1
    28    35    36   ar
    29    36    37   ar
    30    37    38   ar
    31    38    41    1
    32    41    42    2
    33    42    43    1
    34    43    44   ar
    35    43    45   ar
    36    38    39   ar
    37    39    40   ar
    38    27    28    1
    39    28    29    1
    40    29    30    1
    41    12    13   ar
    42    13    14   ar
    43    14     6   ar
    44    21    15   ar
    45    26    22    1
    46    14     9   ar
    47    30    27    1
    48    40    35   ar
    49     3     4    1
    50    33    34    1
@<TRIPOS>MOLECULE
*****
 45 50 0 0 0
SMALL
GASTEIGER

@<TRIPOS>ATOM
      1 C          59.6450   89.3609    7.4860 C.2     1  UNL1        0.2461
      2 O          58.8209   88.2150    6.9785 O.2     1  UNL1       -0.2701
      3 N          59.5885   90.6901    6.7932 N.am    1  UNL1       -0.2964
      4 H          60.1295   91.4422    7.1263 H       1  UNL1        0.1501
      5 C          63.2885   92.5536   10.8511 C.3     1  UNL1        0.1305
      6 N          63.0800   91.1033   11.1723 N.ar    1  UNL1       -0.3242
      7 C          63.7216   90.3487   12.2988 C.ar    1  UNL1        0.0738
      8 C          63.2314   88.9320   12.2461 C.ar    1  UNL1       -0.0038
      9 C          62.2868   88.8111   11.0872 C.ar    1  UNL1        0.0133
     10 C          61.4998   87.6525   10.5505 C.ar    1  UNL1        0.0013
     11 C          60.6192   87.8357    9.3501 C.ar    1  UNL1        0.0046
     12 C          60.5257   89.1777    8.6865 C.ar    1  UNL1        0.0548
     13 C          61.3126   90.3363    9.2232 C.ar    1  UNL1        0.0217
     14 C          62.1932   90.1531   10.4235 C.ar    1  UNL1        0.0598
     15 C          64.6844   90.9118   13.3017 C.ar    1  UNL1        0.0969
     16 C          66.0971   91.2138   12.8978 C.ar    1  UNL1        0.0229
     17 C          67.0598   91.7770   13.9007 C.ar    1  UNL1        0.0328
     18 C          66.6100   92.0381   15.3076 C.ar    1  UNL1        0.1592
     19 F          67.5728   92.6013   16.3105 F       1  UNL1       -0.2025
     20 C          65.1974   91.7361   15.7115 C.ar    1  UNL1        0.1284
     21 N          64.2346   91.1730   14.7086 N.ar    1  UNL1       -0.2400
     22 C          63.6179   87.8298   13.1872 C.3     1  UNL1        0.0238
     23 C          64.2845   88.0014   14.5199 C.3     1  UNL1        0.0044
     24 C          64.4843   86.6401   15.1172 C.3     1  UNL1        0.0003
     25 C          63.9411   85.6270   14.1535 C.3     1  UNL1        0.0003
     26 C          63.4057   86.3622   12.9607 C.3     1  UNL1        0.0044
     27 C          58.7079   90.8733    5.5927 C.3     1  UNL1        0.1260
     28 C          57.5422   90.3308    6.3651 C.3     1  UNL1        0.0270
     29 C          56.6615   90.5140    5.1648 C.3     1  UNL1        0.0043
     30 C          57.8273   91.0566    4.3924 C.3     1  UNL1        0.0270
     31 C          59.8736   91.4159    4.8203 C.2     1  UNL1        0.2419
     32 O          61.2716   91.0265    5.2000 O.2     1  UNL1       -0.2731
     33 N          59.6415   92.3479    3.6682 N.am    1  UNL1       -0.2826
     34 H          58.7240   92.6035    3.4189 H       1  UNL1        0.1549
     35 C          60.8073   92.8905    2.8957 C.ar    1  UNL1        0.0503
     36 C          60.6585   94.1554    2.1033 C.ar    1  UNL1        0.0147
     37 C          61.8243   94.6980    1.3309 C.ar    1  UNL1        0.0013
     38 C          63.1388   93.9757    1.3509 C.ar    1  UNL1        0.0001
     39 C          63.2876   92.7108    2.1434 C.ar    1  UNL1        0.0013
     40 C          62.1217   92.1682    2.9158 C.ar    1  UNL1        0.0147
     41 C          64.3045   94.5183    0.5785 C.2     1  UNL1        0.0012
     42 C          64.0706   95.4118   -0.6034 C.2     1  UNL1        0.0151
     43 C          65.2363   95.9544   -1.3758 C.2     1  UNL1        0.0729
     44 O          66.4155   96.5297   -0.6486 O.co2   1  UNL1       -0.5446
     45 O          65.2230   95.9217   -2.8753 O.co2   1  UNL1       -0.5446
@<TRIPOS>UNITY_ATOM_ATTR
44 1
charge -1
@<TRIPOS>BOND
     1     5     6    1
     2     6     7   ar
     3     7    15    1
     4    15    16   ar
     5    16    17   ar
     6    17    18   ar
     7    18    19    1
     8    18    20   ar
     9    20    21   ar
    10     7     8   ar
    11     8    22    1
    12    22    23    1
    13    23    24    1
    14    24    25    1
    15    25    26    1
    16     8     9   ar
    17     9    10   ar
    18    10    11   ar
    19    11    12   ar
    20    12     1    1
    21     1     2    2
    22     1     3   am
    23     3    27    1
    24    27    31    1
    25    31    32    2
    26    31    33   am
    27    33    35    1
    28    35    36   ar
    29    36    37   ar
    30    37    38   ar
    31    38    41    1
    32    41    42    2
    33    42    43    1
    34    43    44   ar
    35    43    45   ar
    36    38    39   ar
    37    39    40   ar
    38    27    28    1
    39    28    29    1
    40    29    30    1
    41    12    13   ar
    42    13    14   ar
    43    14     6   ar
    44    21    15   ar
    45    26    22    1
    46    14     9   ar
    47    30    27    1
    48    40    35   ar
    49     3     4    1
    50    33    34    1
@<TRIPOS>MOLECULE
*****
 45 50 0 0 0
SMALL
GASTEIGER

@<TRIPOS>ATOM
      1 C          61.0557   89.4070    9.8833 C.2     1  UNL1        0.2461
      2 O          60.1879   88.7650   10.9250 O.2     1  UNL1       -0.2701
      3 N          60.7968   89.1489    8.4286 N.am    1  UNL1       -0.2964
      4 H          61.3663   89.5702    7.7449 H       1  UNL1        0.1501
      5 C          64.8763   89.9814   14.3402 C.3     1  UNL1        0.1305
      6 N          64.9274   90.9590   13.2037 N.ar    1  UNL1       -0.3242
      7 C          65.8804   92.1099   13.0728 C.ar    1  UNL1        0.0738
      8 C          65.5764   92.8194   11.7867 C.ar    1  UNL1       -0.0038
      9 C          64.4355   92.1071   11.1227 C.ar    1  UNL1        0.0133
     10 C          63.7100   92.3569    9.8339 C.ar    1  UNL1        0.0013
     11 C          62.5834   91.4569    9.4207 C.ar    1  UNL1        0.0046
     12 C          62.1823   90.3070   10.2965 C.ar    1  UNL1        0.0548
     13 C          62.9078   90.0572   11.5854 C.ar    1  UNL1        0.0217
     14 C          64.0343   90.9572   11.9985 C.ar    1  UNL1        0.0598
     15 C          66.9497   92.4853   14.0555 C.ar    1  UNL1        0.0969
     16 C          66.5736   93.0272   15.4026 C.ar    1  UNL1        0.0229
     17 C          67.6429   93.4026   16.3853 C.ar    1  UNL1        0.0328
     18 C          69.0883   93.2361   16.0208 C.ar    1  UNL1        0.1592
     19 F          70.1576   93.6116   17.0035 F       1  UNL1       -0.2025
     20 C          69.4645   92.6942   14.6737 C.ar    1  UNL1        0.1284
     21 N          68.3952   92.3188   13.6910 N.ar    1  UNL1       -0.2400
     22 C          66.2883   94.0290   11.2575 C.3     1  UNL1        0.0238
     23 C          67.2120   94.0619   10.0761 C.3     1  UNL1        0.0044
     24 C          67.6961   95.4713    9.9051 C.3     1  UNL1        0.0003
     25 C          67.0715   96.3095   10.9810 C.3     1  UNL1        0.0003
     26 C          66.2014   95.4182   11.8167 C.3     1  UNL1        0.0044
     27 C          59.6701   88.2488    8.0154 C.3     1  UNL1        0.1260
     28 C          59.9306   87.3759    9.2070 C.3     1  UNL1        0.0270
     29 C          58.8040   86.4758    8.7939 C.3     1  UNL1        0.0043
     30 C          58.5436   87.3488    7.6023 C.3     1  UNL1        0.0270
     31 C          59.4097   89.1218    6.8237 C.2     1  UNL1        0.2419
     32 O          58.0927   89.0432    6.1099 O.2     1  UNL1       -0.2731
     33 N          60.4662   90.0733    6.3459 N.am    1  UNL1       -0.2826
     34 H          61.3305   90.1249    6.8143 H       1  UNL1        0.1549
     35 C          60.2057   90.9463    5.1541 C.ar    1  UNL1        0.0503
     36 C          61.3257   91.2909    4.2177 C.ar    1  UNL1        0.0147
     37 C          61.0653   92.1638    3.0261 C.ar    1  UNL1        0.0013
     38 C          59.6848   92.6922    2.7707 C.ar    1  UNL1        0.0001
     39 C          58.5648   92.3476    3.7072 C.ar    1  UNL1        0.0013
     40 C          58.8253   91.4747    4.8989 C.ar    1  UNL1        0.0147
     41 C          59.4243   93.5651    1.5791 C.2     1  UNL1        0.0012
     42 C          59.1307   92.9452    0.2451 C.2     1  UNL1        0.0151
     43 C          58.8702   93.8182   -0.9466 C.2     1  UNL1        0.0729
     44 O          57.9555   95.0007   -0.8245 O.co2   1  UNL1       -0.5446
     45 O          59.5245   93.5086   -2.2604 O.co2   1  UNL1       -0.5446
@<TRIPOS>UNITY_ATOM_ATTR
44 1
charge -1
@<TRIPOS>BOND
     1     5     6    1
     2     6     7   ar
     3     7    15    1
     4    15    16   ar
     5    16    17   ar
     6    17    18   ar
     7    18    19    1
     8    18    20   ar
     9    20    21   ar
    10     7     8   ar
    11     8    22    1
    12    22    23    1
    13    23    24    1
    14    24    25    1
    15    25    26    1
    16     8     9   ar
    17     9    10   ar
    18    10    11   ar
    19    11    12   ar
    20    12     1    1
    21     1     2    2
    22     1     3   am
    23     3    27    1
    24    27    31    1
    25    31    32    2
    26    31    33   am
    27    33    35    1
    28    35    36   ar
    29    36    37   ar
    30    37    38   ar
    31    38    41    1
    32    41    42    2
    33    42    43    1
    34    43    44   ar
    35    43    45   ar
    36    38    39   ar
    37    39    40   ar
    38    27    28    1
    39    28    29    1
    40    29    30    1
    41    12    13   ar
    42    13    14   ar
    43    14     6   ar
    44    21    15   ar
    45    26    22    1
    46    14     9   ar
    47    30    27    1
    48    40    35   ar
    49     3     4    1
    50    33    34    1
