@<TRIPOS>MOLECULE
*****
 28 31 0 0 0
SMALL
GASTEIGER

@<TRIPOS>ATOM
      1 C          66.2399   92.5958   14.1738 C.ar    1  UNL1        0.1281
      2 N          66.8486   93.6330   13.2773 N.ar    1  UNL1       -0.1588
      3 N          66.2013   93.5179   11.9291 N.ar    1  UNL1       -0.2292
      4 C          65.1925   92.4095   11.9923 C.ar    1  UNL1        0.0860
      5 C          64.2553   91.8456   10.9659 C.ar    1  UNL1        0.0339
      6 C          63.3420   90.7118   11.3267 C.ar    1  UNL1        0.0518
      7 C          63.3659   90.1419   12.7140 C.ar    1  UNL1        0.0148
      8 C          64.3031   90.7058   13.7405 C.ar    1  UNL1        0.0048
      9 C          65.2164   91.8396   13.3796 C.ar    1  UNL1        0.0430
     10 C          66.5087   94.3628   10.7284 C.ar    1  UNL1        0.0828
     11 C          66.0186   95.7790   10.6625 C.ar    1  UNL1        0.0191
     12 C          66.3261   96.6240    9.4619 C.ar    1  UNL1        0.0015
     13 C          67.1235   96.0527    8.3271 C.ar    1  UNL1        0.0001
     14 C          67.6136   94.6366    8.3930 C.ar    1  UNL1        0.0015
     15 C          67.3061   93.7917    9.5937 C.ar    1  UNL1        0.0191
     16 N          62.4048   90.1478   10.3003 N.am    1  UNL1       -0.2839
     17 C          61.9724   88.7141   10.3868 C.2     1  UNL1        0.2257
     18 O          62.4773   87.8444   11.4998 O.2     1  UNL1       -0.2748
     19 H          62.0734   90.7187    9.5698 H       1  UNL1        0.1549
     20 C          61.0352   88.1501    9.3604 C.3     1  UNL1        0.0796
     21 C          60.9996   86.6717    9.1092 C.3     1  UNL1        0.0262
     22 C          60.0623   86.1078    8.0828 C.3     1  UNL1        0.0691
     23 N          59.1607   87.0222    7.3075 N.3     1  UNL1       -0.2974
     24 C          59.1964   88.5006    7.5587 C.3     1  UNL1        0.0691
     25 C          60.1336   89.0646    8.5851 C.3     1  UNL1        0.0262
     26 H          58.2048   86.7158    7.4882 H       1  UNL1        0.1232
     27 C          68.0302   92.3529   16.0410 C.3     1  UNL1        0.0757
     28 S          66.5927   92.3566   15.6120 S.3     1  UNL1       -0.0923
@<TRIPOS>BOND
     1    27    28    1
     2    28     1    1
     3     1     2   ar
     4     2     3   ar
     5     3    10    1
     6    10    11   ar
     7    11    12   ar
     8    12    13   ar
     9    13    14   ar
    10    14    15   ar
    11     3     4   ar
    12     4     5   ar
    13     5     6   ar
    14     6    16    1
    15    16    17   am
    16    17    18    2
    17    17    20    1
    18    20    21    1
    19    21    22    1
    20    22    23    1
    21    23    24    1
    22    24    25    1
    23     6     7   ar
    24     7     8   ar
    25     8     9   ar
    26     9     1   ar
    27    15    10   ar
    28     9     4   ar
    29    25    20    1
    30    16    19    1
    31    23    26    1
@<TRIPOS>MOLECULE
*****
 28 31 0 0 0
SMALL
GASTEIGER

@<TRIPOS>ATOM
      1 C          60.2513   87.3885    8.8073 C.ar    1  UNL1        0.1281
      2 N          60.8236   86.0187    9.0224 N.ar    1  UNL1       -0.1588
      3 N          61.8433   86.1093   10.1188 N.ar    1  UNL1       -0.2292
      4 C          61.9012   87.5351   10.5813 C.ar    1  UNL1        0.0860
      5 C          62.7227   88.2156   11.6358 C.ar    1  UNL1        0.0339
      6 C          62.5603   89.6866   11.8798 C.ar    1  UNL1        0.0518
      7 C          61.5764   90.4772   11.0692 C.ar    1  UNL1        0.0148
      8 C          60.7549   89.7967   10.0147 C.ar    1  UNL1        0.0048
      9 C          60.9173   88.3257    9.7708 C.ar    1  UNL1        0.0430
     10 C          62.6614   84.9736   10.6580 C.ar    1  UNL1        0.0828
     11 C          62.6853   84.7005   12.1328 C.ar    1  UNL1        0.0191
     12 C          63.5035   83.5647   12.6720 C.ar    1  UNL1        0.0015
     13 C          64.2977   82.7021   11.7365 C.ar    1  UNL1        0.0001
     14 C          64.2737   82.9753   10.2618 C.ar    1  UNL1        0.0015
     15 C          63.4556   84.1110    9.7226 C.ar    1  UNL1        0.0191
     16 N          63.3819   90.3672   12.9343 N.am    1  UNL1       -0.2839
     17 C          64.4011   91.3959   12.5432 C.2     1  UNL1        0.2257
     18 O          64.5988   91.7440   11.0976 O.2     1  UNL1       -0.2748
     19 H          63.2521   90.1387   13.8831 H       1  UNL1        0.1549
     20 C          65.2226   92.0764   13.5977 C.3     1  UNL1        0.0796
     21 C          66.1323   93.2093   13.2247 C.3     1  UNL1        0.0262
     22 C          66.9539   93.8898   14.2792 C.3     1  UNL1        0.0691
     23 N          66.8657   93.4375   15.7067 N.3     1  UNL1       -0.2974
     24 C          65.9560   92.3047   16.0796 C.3     1  UNL1        0.0691
     25 C          65.1345   91.6241   15.0252 C.3     1  UNL1        0.0262
     26 H          66.5692   94.2457   16.2538 H       1  UNL1        0.1232
     27 C          59.3201   89.0303    7.0219 C.3     1  UNL1        0.0757
     28 S          59.1980   87.7565    7.8048 S.3     1  UNL1       -0.0923
@<TRIPOS>BOND
     1    27    28    1
     2    28     1    1
     3     1     2   ar
     4     2     3   ar
     5     3    10    1
     6    10    11   ar
     7    11    12   ar
     8    12    13   ar
     9    13    14   ar
    10    14    15   ar
    11     3     4   ar
    12     4     5   ar
    13     5     6   ar
    14     6    16    1
    15    16    17   am
    16    17    18    2
    17    17    20    1
    18    20    21    1
    19    21    22    1
    20    22    23    1
    21    23    24    1
    22    24    25    1
    23     6     7   ar
    24     7     8   ar
    25     8     9   ar
    26     9     1   ar
    27    15    10   ar
    28     9     4   ar
    29    25    20    1
    30    16    19    1
    31    23    26    1
@<TRIPOS>MOLECULE
*****
 28 31 0 0 0
SMALL
GASTEIGER

@<TRIPOS>ATOM
      1 C          65.9371   92.1008   14.0507 C.ar    1  UNL1        0.1281
      2 N          65.7176   91.0570   15.1053 N.ar    1  UNL1       -0.1588
      3 N          64.6896   90.0913   14.5948 N.ar    1  UNL1       -0.2292
      4 C          64.2738   90.5383   13.2246 C.ar    1  UNL1        0.0860
      5 C          63.2928   89.9749   12.2397 C.ar    1  UNL1        0.0339
      6 C          63.0827   90.6535   10.9186 C.ar    1  UNL1        0.0518
      7 C          63.8537   91.8954   10.5824 C.ar    1  UNL1        0.0148
      8 C          64.8348   92.4588   11.5672 C.ar    1  UNL1        0.0048
      9 C          65.0448   91.7803   12.8884 C.ar    1  UNL1        0.0430
     10 C          64.1689   88.8896   15.3259 C.ar    1  UNL1        0.0828
     11 C          63.3366   89.0658   16.5615 C.ar    1  UNL1        0.0191
     12 C          62.8158   87.8641   17.2927 C.ar    1  UNL1        0.0015
     13 C          63.1273   86.4862   16.7884 C.ar    1  UNL1        0.0001
     14 C          63.9595   86.3100   15.5529 C.ar    1  UNL1        0.0015
     15 C          64.4802   87.5117   14.8217 C.ar    1  UNL1        0.0191
     16 N          62.1016   90.0900    9.9336 N.am    1  UNL1       -0.2839
     17 C          61.7477   88.6331    9.9775 C.2     1  UNL1        0.2257
     18 O          62.3748   87.7395   11.0063 O.2     1  UNL1       -0.2748
     19 H          61.6901   90.6765    9.2584 H       1  UNL1        0.1549
     20 C          60.7666   88.0696    8.9926 C.3     1  UNL1        0.0796
     21 C          59.8474   88.9866    8.2414 C.3     1  UNL1        0.0262
     22 C          58.8663   88.4230    7.2565 C.3     1  UNL1        0.0691
     23 N          58.8045   86.9427    7.0227 N.3     1  UNL1       -0.2974
     24 C          59.7238   86.0258    7.7739 C.3     1  UNL1        0.0691
     25 C          60.7048   86.5892    8.7588 C.3     1  UNL1        0.0262
     26 H          58.9862   86.7935    6.0302 H       1  UNL1        0.1232
     27 C          67.6953   93.4707   15.3860 C.3     1  UNL1        0.0757
     28 S          66.8829   93.2615   14.1423 S.3     1  UNL1       -0.0923
@<TRIPOS>BOND
     1    27    28    1
     2    28     1    1
     3     1     2   ar
     4     2     3   ar
     5     3    10    1
     6    10    11   ar
     7    11    12   ar
     8    12    13   ar
     9    13    14   ar
    10    14    15   ar
    11     3     4   ar
    12     4     5   ar
    13     5     6   ar
    14     6    16    1
    15    16    17   am
    16    17    18    2
    17    17    20    1
    18    20    21    1
    19    21    22    1
    20    22    23    1
    21    23    24    1
    22    24    25    1
    23     6     7   ar
    24     7     8   ar
    25     8     9   ar
    26     9     1   ar
    27    15    10   ar
    28     9     4   ar
    29    25    20    1
    30    16    19    1
    31    23    26    1
@<TRIPOS>MOLECULE
*****
 28 31 0 0 0
SMALL
GASTEIGER

@<TRIPOS>ATOM
      1 C          63.0776   82.1606   13.2258 C.ar    1  UNL1        0.1281
      2 N          62.6039   82.5481   11.8563 N.ar    1  UNL1       -0.1588
      3 N          62.7590   84.0333   11.7153 N.ar    1  UNL1       -0.2292
      4 C          63.3285   84.5639   12.9975 C.ar    1  UNL1        0.0860
      5 C          63.6932   85.9513   13.4356 C.ar    1  UNL1        0.0339
      6 C          64.2548   86.1813   14.8073 C.ar    1  UNL1        0.0518
      7 C          64.4518   85.0239   15.7409 C.ar    1  UNL1        0.0148
      8 C          64.0871   83.6365   15.3028 C.ar    1  UNL1        0.0048
      9 C          63.5254   83.4064   13.9311 C.ar    1  UNL1        0.0430
     10 C          62.4064   84.8455   10.5045 C.ar    1  UNL1        0.0828
     11 C          61.3155   85.8723   10.5817 C.ar    1  UNL1        0.0191
     12 C          60.9629   86.6845    9.3709 C.ar    1  UNL1        0.0015
     13 C          61.7012   86.4700    8.0829 C.ar    1  UNL1        0.0001
     14 C          62.7920   85.4434    8.0057 C.ar    1  UNL1        0.0015
     15 C          63.1446   84.6312    9.2165 C.ar    1  UNL1        0.0191
     16 N          64.6195   87.5688   15.2455 N.am    1  UNL1       -0.2839
     17 C          64.2373   88.7472   14.3998 C.2     1  UNL1        0.2257
     18 O          63.4903   88.5381   13.1158 O.2     1  UNL1       -0.2748
     19 H          65.1098   87.7060   16.0882 H       1  UNL1        0.1549
     20 C          64.6020   90.1346   14.8379 C.3     1  UNL1        0.0796
     21 C          63.8822   90.7709   15.9898 C.3     1  UNL1        0.0262
     22 C          64.2469   92.1584   16.4279 C.3     1  UNL1        0.0691
     23 N          65.3314   92.9096   15.7141 N.3     1  UNL1       -0.2974
     24 C          66.0512   92.2733   14.5621 C.3     1  UNL1        0.0691
     25 C          65.6865   90.8858   14.1240 C.3     1  UNL1        0.0262
     26 H          66.0385   93.1399   16.4121 H       1  UNL1        0.1232
     27 C          62.0194   79.7963   13.4267 C.3     1  UNL1        0.0757
     28 S          63.0997   80.7713   13.7909 S.3     1  UNL1       -0.0923
@<TRIPOS>BOND
     1    27    28    1
     2    28     1    1
     3     1     2   ar
     4     2     3   ar
     5     3    10    1
     6    10    11   ar
     7    11    12   ar
     8    12    13   ar
     9    13    14   ar
    10    14    15   ar
    11     3     4   ar
    12     4     5   ar
    13     5     6   ar
    14     6    16    1
    15    16    17   am
    16    17    18    2
    17    17    20    1
    18    20    21    1
    19    21    22    1
    20    22    23    1
    21    23    24    1
    22    24    25    1
    23     6     7   ar
    24     7     8   ar
    25     8     9   ar
    26     9     1   ar
    27    15    10   ar
    28     9     4   ar
    29    25    20    1
    30    16    19    1
    31    23    26    1
@<TRIPOS>MOLECULE
*****
 28 31 0 0 0
SMALL
GASTEIGER

@<TRIPOS>ATOM
      1 C          63.0617   82.5340   12.4710 C.ar    1  UNL1        0.1281
      2 N          62.3003   83.0771   11.2982 N.ar    1  UNL1       -0.1588
      3 N          62.3354   84.5746   11.3761 N.ar    1  UNL1       -0.2292
      4 C          63.1185   84.9571   12.5970 C.ar    1  UNL1        0.0860
      5 C          63.4808   86.2909   13.1799 C.ar    1  UNL1        0.0339
      6 C          64.2919   86.3634   14.4395 C.ar    1  UNL1        0.0518
      7 C          64.7408   85.1022   15.1162 C.ar    1  UNL1        0.0148
      8 C          64.3785   83.7685   14.5333 C.ar    1  UNL1        0.0048
      9 C          63.5674   83.6959   13.2737 C.ar    1  UNL1        0.0430
     10 C          61.6992   85.5232   10.4038 C.ar    1  UNL1        0.0828
     11 C          61.8949   85.3291    8.9293 C.ar    1  UNL1        0.0191
     12 C          61.2586   86.2776    7.9569 C.ar    1  UNL1        0.0015
     13 C          60.4267   87.4203    8.4591 C.ar    1  UNL1        0.0001
     14 C          60.2310   87.6145    9.9335 C.ar    1  UNL1        0.0015
     15 C          60.8673   86.6659   10.9058 C.ar    1  UNL1        0.0191
     16 N          64.6543   87.6972   15.0225 N.am    1  UNL1       -0.2839
     17 C          64.2811   88.9578   14.3002 C.2     1  UNL1        0.2257
     18 O          63.5455   88.8845   12.9949 O.2     1  UNL1       -0.2748
     19 H          65.1370   87.7452   15.8792 H       1  UNL1        0.1549
     20 C          64.6434   90.2915   14.8832 C.3     1  UNL1        0.0796
     21 C          65.7547   91.0973   14.2786 C.3     1  UNL1        0.0262
     22 C          66.1170   92.4311   14.8616 C.3     1  UNL1        0.0691
     23 N          65.3679   92.9590   16.0491 N.3     1  UNL1       -0.2974
     24 C          64.2565   92.1532   16.6536 C.3     1  UNL1        0.0691
     25 C          63.8942   90.8195   16.0707 C.3     1  UNL1        0.0262
     26 H          64.9647   93.8532   15.7692 H       1  UNL1        0.1232
     27 C          62.2095   80.2996   13.4867 C.3     1  UNL1        0.0757
     28 S          63.2793   81.0837   12.7859 S.3     1  UNL1       -0.0923
@<TRIPOS>BOND
     1    27    28    1
     2    28     1    1
     3     1     2   ar
     4     2     3   ar
     5     3    10    1
     6    10    11   ar
     7    11    12   ar
     8    12    13   ar
     9    13    14   ar
    10    14    15   ar
    11     3     4   ar
    12     4     5   ar
    13     5     6   ar
    14     6    16    1
    15    16    17   am
    16    17    18    2
    17    17    20    1
    18    20    21    1
    19    21    22    1
    20    22    23    1
    21    23    24    1
    22    24    25    1
    23     6     7   ar
    24     7     8   ar
    25     8     9   ar
    26     9     1   ar
    27    15    10   ar
    28     9     4   ar
    29    25    20    1
    30    16    19    1
    31    23    26    1
@<TRIPOS>MOLECULE
*****
 28 31 0 0 0
SMALL
GASTEIGER

@<TRIPOS>ATOM
      1 C          62.7157   85.6927   12.3017 C.ar    1  UNL1        0.1281
      2 N          63.4782   86.6696   13.1469 N.ar    1  UNL1       -0.1588
      3 N          63.3022   88.0346   12.5505 N.ar    1  UNL1       -0.2292
      4 C          62.4309   87.9014   11.3368 C.ar    1  UNL1        0.0860
      5 C          61.9208   88.9111   10.3518 C.ar    1  UNL1        0.0339
      6 C          61.0482   88.4734    9.2130 C.ar    1  UNL1        0.0518
      7 C          60.6857   87.0260    9.0592 C.ar    1  UNL1        0.0148
      8 C          61.1958   86.0163   10.0442 C.ar    1  UNL1        0.0048
      9 C          62.0684   86.4540   11.1830 C.ar    1  UNL1        0.0430
     10 C          63.8937   89.3091   13.0756 C.ar    1  UNL1        0.0828
     11 C          63.9174   90.5362   12.2131 C.ar    1  UNL1        0.0191
     12 C          64.5089   91.8108   12.7383 C.ar    1  UNL1        0.0015
     13 C          65.0766   91.8583   14.1259 C.ar    1  UNL1        0.0001
     14 C          65.0529   90.6313   14.9883 C.ar    1  UNL1        0.0015
     15 C          64.4614   89.3567   14.4632 C.ar    1  UNL1        0.0191
     16 N          60.5380   89.4831    8.2279 N.am    1  UNL1       -0.2839
     17 C          59.5911   89.0611    7.1438 C.2     1  UNL1        0.2257
     18 O          59.1544   87.6295    7.0447 O.2     1  UNL1       -0.2748
     19 H          60.8246   90.4227    8.2929 H       1  UNL1        0.1549
     20 C          59.0809   90.0707    6.1587 C.3     1  UNL1        0.0796
     21 C          60.0473   90.9010    5.3671 C.3     1  UNL1        0.0262
     22 C          59.5371   91.9106    4.3820 C.3     1  UNL1        0.0691
     23 N          58.0605   92.0900    4.1886 N.3     1  UNL1       -0.2974
     24 C          57.0941   91.2597    4.9802 C.3     1  UNL1        0.0691
     25 C          57.6042   90.2501    5.9653 C.3     1  UNL1        0.0262
     26 H          57.8681   91.9068    3.2038 H       1  UNL1        0.1232
     27 C          63.1779   83.2571   11.5242 C.3     1  UNL1        0.0757
     28 S          62.6176   84.2141   12.5343 S.3     1  UNL1       -0.0923
@<TRIPOS>BOND
     1    27    28    1
     2    28     1    1
     3     1     2   ar
     4     2     3   ar
     5     3    10    1
     6    10    11   ar
     7    11    12   ar
     8    12    13   ar
     9    13    14   ar
    10    14    15   ar
    11     3     4   ar
    12     4     5   ar
    13     5     6   ar
    14     6    16    1
    15    16    17   am
    16    17    18    2
    17    17    20    1
    18    20    21    1
    19    21    22    1
    20    22    23    1
    21    23    24    1
    22    24    25    1
    23     6     7   ar
    24     7     8   ar
    25     8     9   ar
    26     9     1   ar
    27    15    10   ar
    28     9     4   ar
    29    25    20    1
    30    16    19    1
    31    23    26    1
@<TRIPOS>MOLECULE
*****
 28 31 0 0 0
SMALL
GASTEIGER

@<TRIPOS>ATOM
      1 C          63.5550   90.4434   12.2336 C.ar    1  UNL1        0.1281
      2 N          62.6866   90.4757   11.0110 N.ar    1  UNL1       -0.1588
      3 N          62.1782   89.0858   10.7667 N.ar    1  UNL1       -0.2292
      4 C          62.7324   88.1945   11.8383 C.ar    1  UNL1        0.0860
      5 C          62.5721   86.7272   12.1057 C.ar    1  UNL1        0.0339
      6 C          63.2628   86.0990   13.2796 C.ar    1  UNL1        0.0518
      7 C          64.1137   86.9380   14.1863 C.ar    1  UNL1        0.0148
      8 C          64.2740   88.4053   13.9189 C.ar    1  UNL1        0.0048
      9 C          63.5833   89.0335   12.7449 C.ar    1  UNL1        0.0430
     10 C          61.2742   88.6617    9.6473 C.ar    1  UNL1        0.0828
     11 C          60.4564   89.6842    8.9152 C.ar    1  UNL1        0.0191
     12 C          59.5525   89.2601    7.7958 C.ar    1  UNL1        0.0015
     13 C          59.4663   87.8135    7.4085 C.ar    1  UNL1        0.0001
     14 C          60.2841   86.7911    8.1405 C.ar    1  UNL1        0.0015
     15 C          61.1880   87.2152    9.2599 C.ar    1  UNL1        0.0191
     16 N          63.1026   84.6317   13.5471 N.am    1  UNL1       -0.2839
     17 C          62.7958   83.6928   12.4182 C.2     1  UNL1        0.2257
     18 O          62.6492   84.2212   11.0220 O.2     1  UNL1       -0.2748
     19 H          63.1988   84.2850   14.4634 H       1  UNL1        0.1549
     20 C          62.6355   82.2256   12.6856 C.3     1  UNL1        0.0796
     21 C          62.9217   81.2299   11.6008 C.3     1  UNL1        0.0262
     22 C          62.7614   79.7626   11.8682 C.3     1  UNL1        0.0691
     23 N          62.3151   79.2910   13.2203 N.3     1  UNL1       -0.2974
     24 C          62.0289   80.2867   14.3051 C.3     1  UNL1        0.0691
     25 C          62.1892   81.7539   14.0378 C.3     1  UNL1        0.0262
     26 H          63.0462   78.6734   13.5729 H       1  UNL1        0.1232
     27 C          65.3248   92.3370   12.0540 C.3     1  UNL1        0.0757
     28 S          64.2696   91.6152   12.8387 S.3     1  UNL1       -0.0923
@<TRIPOS>BOND
     1    27    28    1
     2    28     1    1
     3     1     2   ar
     4     2     3   ar
     5     3    10    1
     6    10    11   ar
     7    11    12   ar
     8    12    13   ar
     9    13    14   ar
    10    14    15   ar
    11     3     4   ar
    12     4     5   ar
    13     5     6   ar
    14     6    16    1
    15    16    17   am
    16    17    18    2
    17    17    20    1
    18    20    21    1
    19    21    22    1
    20    22    23    1
    21    23    24    1
    22    24    25    1
    23     6     7   ar
    24     7     8   ar
    25     8     9   ar
    26     9     1   ar
    27    15    10   ar
    28     9     4   ar
    29    25    20    1
    30    16    19    1
    31    23    26    1
