@<TRIPOS>MOLECULE
*****
 33 35 0 0 0
SMALL
GASTEIGER

@<TRIPOS>ATOM
      1 C          62.4208   86.5282   10.6826 C.3     1  UNL1        0.1169
      2 C          62.0237   86.0244    9.3267 C.ar    1  UNL1       -0.0003
      3 C          60.6208   86.2226    8.8343 C.ar    1  UNL1       -0.0024
      4 C          60.2236   85.7188    7.4784 C.ar    1  UNL1       -0.0003
      5 C          61.2295   85.0168    6.6149 C.ar    1  UNL1       -0.0000
      6 C          62.6324   84.8186    7.1074 C.ar    1  UNL1       -0.0003
      7 C          63.0295   85.3224    8.4633 C.ar    1  UNL1       -0.0024
      8 C          62.7603   85.5566   11.7739 C.ar    1  UNL1       -0.0004
      9 C          63.3416   86.0520   13.0650 C.ar    1  UNL1       -0.0024
     10 C          63.6812   85.0805   14.1562 C.ar    1  UNL1       -0.0003
     11 C          63.4394   83.6136   13.9564 C.ar    1  UNL1        0.0038
     12 C          62.8581   83.1183   12.6654 C.ar    1  UNL1        0.0712
     13 C          62.5186   84.0898   11.5741 C.ar    1  UNL1        0.0015
     14 C          62.6164   81.6515   12.4656 C.3     1  UNL1        0.4186
     15 F          62.3746   80.1846   12.2658 F       1  UNL1       -0.1659
     16 F          62.1072   81.5438   13.8724 F       1  UNL1       -0.1659
     17 F          63.1256   81.7591   11.0589 F       1  UNL1       -0.1659
     18 O          59.9760   87.9760   11.6455 O.2     1  UNL1       -0.2732
     19 C          61.2560   88.7274   11.4287 C.2     1  UNL1        0.2430
     20 N          62.4784   88.0036   10.9473 N.am    1  UNL1       -0.2972
     21 H          63.3185   88.4968   10.8051 H       1  UNL1        0.1500
     22 C          61.3136   90.2027   11.6934 C.3     1  UNL1        0.1759
     23 N          62.6262   90.8578   12.0069 N.am    1  UNL1       -0.2931
     24 C          63.2500   90.6781   13.3592 C.2     1  UNL1        0.2462
     25 O          62.5613   89.8433   14.3979 O.2     1  UNL1       -0.2701
     26 H          63.0782   91.4057   11.3252 H       1  UNL1        0.1502
     27 C          64.5625   91.3331   13.6727 C.ar    1  UNL1        0.0535
     28 C          65.3252   92.0398   12.5916 C.ar    1  UNL1        0.0068
     29 C          66.6377   92.6949   12.9052 C.ar    1  UNL1        0.0298
     30 C          67.1874   92.6431   14.2999 C.ar    1  UNL1        0.1401
     31 F          68.4999   93.2982   14.6135 F       1  UNL1       -0.2042
     32 C          66.4247   91.9364   15.3810 C.ar    1  UNL1        0.0298
     33 C          65.1123   91.2814   15.0674 C.ar    1  UNL1        0.0068
@<TRIPOS>BOND
     1    18    19    2
     2    19    22    1
     3    22    23    1
     4    23    24   am
     5    24    25    2
     6    24    27    1
     7    27    28   ar
     8    28    29   ar
     9    29    30   ar
    10    30    31    1
    11    30    32   ar
    12    32    33   ar
    13    19    20   am
    14    20     1    1
    15     1     2    1
    16     2     3   ar
    17     3     4   ar
    18     4     5   ar
    19     5     6   ar
    20     6     7   ar
    21     1     8    1
    22     8     9   ar
    23     9    10   ar
    24    10    11   ar
    25    11    12   ar
    26    12    14    1
    27    14    15    1
    28    14    16    1
    29    14    17    1
    30    12    13   ar
    31    33    27   ar
    32     7     2   ar
    33    13     8   ar
    34    23    26    1
    35    20    21    1
@<TRIPOS>MOLECULE
*****
 33 35 0 0 0
SMALL
GASTEIGER

@<TRIPOS>ATOM
      1 C          64.4447   89.5776   14.1481 C.3     1  UNL1        0.1169
      2 C          65.2557   90.7081   14.7084 C.ar    1  UNL1       -0.0003
      3 C          66.6272   90.9868   14.1688 C.ar    1  UNL1       -0.0024
      4 C          67.4383   92.1174   14.7292 C.ar    1  UNL1       -0.0003
      5 C          66.8778   92.9693   15.8292 C.ar    1  UNL1       -0.0000
      6 C          65.5062   92.6907   16.3688 C.ar    1  UNL1       -0.0003
      7 C          64.6952   91.5601   15.8084 C.ar    1  UNL1       -0.0024
      8 C          63.7477   89.7362   12.8294 C.ar    1  UNL1       -0.0004
      9 C          63.7955   91.0511   12.1091 C.ar    1  UNL1       -0.0024
     10 C          63.0984   91.2097   10.7904 C.ar    1  UNL1       -0.0003
     11 C          62.3535   90.0533   10.1920 C.ar    1  UNL1        0.0038
     12 C          62.3057   88.7385   10.9123 C.ar    1  UNL1        0.0712
     13 C          63.0028   88.5799   12.2310 C.ar    1  UNL1        0.0015
     14 C          61.5608   87.5822   10.3139 C.3     1  UNL1        0.4186
     15 F          60.8158   86.4259    9.7155 F       1  UNL1       -0.1659
     16 F          62.5828   87.4900    9.2199 F       1  UNL1       -0.1659
     17 F          60.5388   87.6744   11.4079 F       1  UNL1       -0.1659
     18 O          62.3346   89.2589   16.2566 O.2     1  UNL1       -0.2732
     19 C          63.2758   88.1291   15.9606 C.2     1  UNL1        0.2430
     20 N          64.3308   88.2883   14.9064 N.am    1  UNL1       -0.2972
     21 H          64.9485   87.5467   14.7121 H       1  UNL1        0.1500
     22 C          63.1619   86.8399   16.7189 C.3     1  UNL1        0.1759
     23 N          62.8254   85.5705   15.9939 N.am    1  UNL1       -0.2931
     24 C          63.8450   84.9214   15.1055 C.2     1  UNL1        0.2462
     25 O          65.2009   85.5416   14.9421 O.2     1  UNL1       -0.2701
     26 H          61.9355   85.1634   16.1011 H       1  UNL1        0.1502
     27 C          63.5085   83.6520   14.3805 C.ar    1  UNL1        0.0535
     28 C          64.3371   83.2153   13.2089 C.ar    1  UNL1        0.0068
     29 C          64.0007   81.9460   12.4840 C.ar    1  UNL1        0.0298
     30 C          62.8356   81.1134   12.9306 C.ar    1  UNL1        0.1401
     31 F          62.4992   79.8440   12.2056 F       1  UNL1       -0.2042
     32 C          62.0070   81.5501   14.1022 C.ar    1  UNL1        0.0298
     33 C          62.3435   82.8194   14.8271 C.ar    1  UNL1        0.0068
@<TRIPOS>BOND
     1    18    19    2
     2    19    22    1
     3    22    23    1
     4    23    24   am
     5    24    25    2
     6    24    27    1
     7    27    28   ar
     8    28    29   ar
     9    29    30   ar
    10    30    31    1
    11    30    32   ar
    12    32    33   ar
    13    19    20   am
    14    20     1    1
    15     1     2    1
    16     2     3   ar
    17     3     4   ar
    18     4     5   ar
    19     5     6   ar
    20     6     7   ar
    21     1     8    1
    22     8     9   ar
    23     9    10   ar
    24    10    11   ar
    25    11    12   ar
    26    12    14    1
    27    14    15    1
    28    14    16    1
    29    14    17    1
    30    12    13   ar
    31    33    27   ar
    32     7     2   ar
    33    13     8   ar
    34    23    26    1
    35    20    21    1
@<TRIPOS>MOLECULE
*****
 33 35 0 0 0
SMALL
GASTEIGER

@<TRIPOS>ATOM
      1 C          64.2484   89.1414   14.0199 C.3     1  UNL1        0.1169
      2 C          63.5282   89.3460   12.7202 C.ar    1  UNL1       -0.0003
      3 C          62.8770   88.1828   12.0325 C.ar    1  UNL1       -0.0024
      4 C          62.1567   88.3874   10.7327 C.ar    1  UNL1       -0.0003
      5 C          62.0876   89.7551   10.1207 C.ar    1  UNL1       -0.0000
      6 C          62.7388   90.9183   10.8085 C.ar    1  UNL1       -0.0003
      7 C          63.4591   90.7137   12.1082 C.ar    1  UNL1       -0.0024
      8 C          64.7880   90.3216   14.7723 C.ar    1  UNL1       -0.0004
      9 C          63.9379   91.0085   15.7997 C.ar    1  UNL1       -0.0024
     10 C          64.4775   92.1887   16.5520 C.ar    1  UNL1       -0.0003
     11 C          65.8672   92.6820   16.2769 C.ar    1  UNL1        0.0038
     12 C          66.7172   91.9950   15.2495 C.ar    1  UNL1        0.0712
     13 C          66.1776   90.8148   14.4972 C.ar    1  UNL1        0.0015
     14 C          68.1068   92.4883   14.9745 C.3     1  UNL1        0.4186
     15 F          69.4964   92.9815   14.6994 F       1  UNL1       -0.1659
     16 F          68.0199   93.3968   16.1648 F       1  UNL1       -0.1659
     17 F          68.1936   91.5797   13.7841 F       1  UNL1       -0.1659
     18 O          62.7584   88.2957   16.4826 O.2     1  UNL1       -0.2732
     19 C          63.6841   87.3337   15.7987 C.2     1  UNL1        0.2430
     20 N          64.4291   87.7565   14.5674 N.am    1  UNL1       -0.2972
     21 H          65.0367   87.1252   14.1186 H       1  UNL1        0.1500
     22 C          63.8648   85.9490   16.3461 C.3     1  UNL1        0.1759
     23 N          63.8947   84.7726   15.4158 N.am    1  UNL1       -0.2931
     24 C          62.6117   84.1917   14.8999 C.2     1  UNL1        0.2462
     25 O          61.2987   84.7869   15.3143 O.2     1  UNL1       -0.2701
     26 H          64.7565   84.3820   15.1438 H       1  UNL1        0.1502
     27 C          62.6416   83.0153   13.9695 C.ar    1  UNL1        0.0535
     28 C          62.0012   81.7212   14.3759 C.ar    1  UNL1        0.0068
     29 C          62.0312   80.5450   13.4456 C.ar    1  UNL1        0.0298
     30 C          62.7014   80.6629   12.1088 C.ar    1  UNL1        0.1401
     31 F          62.7313   79.4866   11.1785 F       1  UNL1       -0.2042
     32 C          63.3417   81.9570   11.7024 C.ar    1  UNL1        0.0298
     33 C          63.3118   83.1332   12.6328 C.ar    1  UNL1        0.0068
@<TRIPOS>BOND
     1    18    19    2
     2    19    22    1
     3    22    23    1
     4    23    24   am
     5    24    25    2
     6    24    27    1
     7    27    28   ar
     8    28    29   ar
     9    29    30   ar
    10    30    31    1
    11    30    32   ar
    12    32    33   ar
    13    19    20   am
    14    20     1    1
    15     1     2    1
    16     2     3   ar
    17     3     4   ar
    18     4     5   ar
    19     5     6   ar
    20     6     7   ar
    21     1     8    1
    22     8     9   ar
    23     9    10   ar
    24    10    11   ar
    25    11    12   ar
    26    12    14    1
    27    14    15    1
    28    14    16    1
    29    14    17    1
    30    12    13   ar
    31    33    27   ar
    32     7     2   ar
    33    13     8   ar
    34    23    26    1
    35    20    21    1
@<TRIPOS>MOLECULE
*****
 33 35 0 0 0
SMALL
GASTEIGER

@<TRIPOS>ATOM
      1 C          62.3902   86.3765   10.6464 C.3     1  UNL1        0.1169
      2 C          62.0119   85.9281    9.2659 C.ar    1  UNL1       -0.0003
      3 C          60.6152   86.1442    8.7635 C.ar    1  UNL1       -0.0024
      4 C          60.2368   85.6958    7.3830 C.ar    1  UNL1       -0.0003
      5 C          61.2553   85.0313    6.5048 C.ar    1  UNL1       -0.0000
      6 C          62.6520   84.8151    7.0072 C.ar    1  UNL1       -0.0003
      7 C          63.0303   85.2635    8.3877 C.ar    1  UNL1       -0.0024
      8 C          62.6762   85.3610   11.7127 C.ar    1  UNL1       -0.0004
      9 C          62.5699   83.8973   11.4024 C.ar    1  UNL1       -0.0024
     10 C          62.8558   82.8819   12.4688 C.ar    1  UNL1       -0.0003
     11 C          63.2481   83.3302   13.8455 C.ar    1  UNL1        0.0038
     12 C          63.3544   84.7939   14.1557 C.ar    1  UNL1        0.0712
     13 C          63.0684   85.8093   13.0894 C.ar    1  UNL1        0.0015
     14 C          63.7466   85.2422   15.5324 C.3     1  UNL1        0.4186
     15 F          64.1388   85.6905   16.9091 F       1  UNL1       -0.1659
     16 F          65.0134   85.8264   14.9812 F       1  UNL1       -0.1659
     17 F          62.4798   84.6579   16.0836 F       1  UNL1       -0.1659
     18 O          59.9591   87.8670   11.5782 O.2     1  UNL1       -0.2732
     19 C          61.2670   88.5856   11.4264 C.2     1  UNL1        0.2430
     20 N          62.4826   87.8403   10.9605 N.am    1  UNL1       -0.2972
     21 H          63.3410   88.3120   10.8609 H       1  UNL1        0.1500
     22 C          61.3594   90.0493   11.7405 C.3     1  UNL1        0.1759
     23 N          62.4890   90.5662   12.5815 N.am    1  UNL1       -0.2931
     24 C          63.6698   91.2226   11.9299 C.2     1  UNL1        0.2462
     25 O          63.7212   91.3623   10.4373 O.2     1  UNL1       -0.2701
     26 H          62.4553   90.4745   13.5611 H       1  UNL1        0.1502
     27 C          64.7993   91.7394   12.7708 C.ar    1  UNL1        0.0535
     28 C          65.1696   91.0366   14.0432 C.ar    1  UNL1        0.0068
     29 C          66.2991   91.5534   14.8841 C.ar    1  UNL1        0.0298
     30 C          67.0583   92.7730   14.4526 C.ar    1  UNL1        0.1401
     31 F          68.1878   93.2898   15.2935 F       1  UNL1       -0.2042
     32 C          66.6881   93.4758   13.1802 C.ar    1  UNL1        0.0298
     33 C          65.5586   92.9590   12.3393 C.ar    1  UNL1        0.0068
@<TRIPOS>BOND
     1    18    19    2
     2    19    22    1
     3    22    23    1
     4    23    24   am
     5    24    25    2
     6    24    27    1
     7    27    28   ar
     8    28    29   ar
     9    29    30   ar
    10    30    31    1
    11    30    32   ar
    12    32    33   ar
    13    19    20   am
    14    20     1    1
    15     1     2    1
    16     2     3   ar
    17     3     4   ar
    18     4     5   ar
    19     5     6   ar
    20     6     7   ar
    21     1     8    1
    22     8     9   ar
    23     9    10   ar
    24    10    11   ar
    25    11    12   ar
    26    12    14    1
    27    14    15    1
    28    14    16    1
    29    14    17    1
    30    12    13   ar
    31    33    27   ar
    32     7     2   ar
    33    13     8   ar
    34    23    26    1
    35    20    21    1
@<TRIPOS>MOLECULE
*****
 33 35 0 0 0
SMALL
GASTEIGER

@<TRIPOS>ATOM
      1 C          64.6161   90.2836   14.0745 C.3     1  UNL1        0.1169
      2 C          65.6725   91.2228   14.5764 C.ar    1  UNL1       -0.0003
      3 C          65.4471   91.9991   15.8399 C.ar    1  UNL1       -0.0024
      4 C          66.5035   92.9383   16.3417 C.ar    1  UNL1       -0.0003
      5 C          67.7855   93.1011   15.5801 C.ar    1  UNL1       -0.0000
      6 C          68.0109   92.3248   14.3165 C.ar    1  UNL1       -0.0003
      7 C          66.9545   91.3856   13.8147 C.ar    1  UNL1       -0.0024
      8 C          64.1825   89.1223   14.9191 C.ar    1  UNL1       -0.0004
      9 C          63.4314   89.3620   16.1953 C.ar    1  UNL1       -0.0024
     10 C          62.9978   88.2007   17.0398 C.ar    1  UNL1       -0.0003
     11 C          63.3152   86.7996   16.6081 C.ar    1  UNL1        0.0038
     12 C          64.0662   86.5599   15.3320 C.ar    1  UNL1        0.0712
     13 C          64.4998   87.7212   14.4875 C.ar    1  UNL1        0.0015
     14 C          64.3835   85.1588   14.9004 C.3     1  UNL1        0.4186
     15 F          64.7008   83.7577   14.4688 F       1  UNL1       -0.1659
     16 F          65.8418   85.5058   14.8465 F       1  UNL1       -0.1659
     17 F          62.9252   84.8119   14.9544 F       1  UNL1       -0.1659
     18 O          61.6647   89.8931   13.7042 O.2     1  UNL1       -0.2732
     19 C          62.5176   90.3105   12.5430 C.2     1  UNL1        0.2430
     20 N          63.9932   90.5058   12.7281 N.am    1  UNL1       -0.2972
     21 H          64.5530   90.7797   11.9660 H       1  UNL1        0.1500
     22 C          61.8948   90.5327   11.1966 C.3     1  UNL1        0.1759
     23 N          61.9911   89.4710   10.1413 N.am    1  UNL1       -0.2931
     24 C          61.2157   88.1954   10.2879 C.2     1  UNL1        0.2462
     25 O          60.3441   87.9813   11.4897 O.2     1  UNL1       -0.2701
     26 H          62.5631   89.6115    9.3525 H       1  UNL1        0.1502
     27 C          61.3120   87.1337    9.2325 C.ar    1  UNL1        0.0535
     28 C          60.1327   86.8415    8.3529 C.ar    1  UNL1        0.0068
     29 C          60.2290   85.7799    7.2976 C.ar    1  UNL1        0.0298
     30 C          61.5046   85.0104    7.1220 C.ar    1  UNL1        0.1401
     31 F          61.6009   83.9487    6.0667 F       1  UNL1       -0.2042
     32 C          62.6839   85.3026    8.0017 C.ar    1  UNL1        0.0298
     33 C          62.5876   86.3642    9.0570 C.ar    1  UNL1        0.0068
@<TRIPOS>BOND
     1    18    19    2
     2    19    22    1
     3    22    23    1
     4    23    24   am
     5    24    25    2
     6    24    27    1
     7    27    28   ar
     8    28    29   ar
     9    29    30   ar
    10    30    31    1
    11    30    32   ar
    12    32    33   ar
    13    19    20   am
    14    20     1    1
    15     1     2    1
    16     2     3   ar
    17     3     4   ar
    18     4     5   ar
    19     5     6   ar
    20     6     7   ar
    21     1     8    1
    22     8     9   ar
    23     9    10   ar
    24    10    11   ar
    25    11    12   ar
    26    12    14    1
    27    14    15    1
    28    14    16    1
    29    14    17    1
    30    12    13   ar
    31    33    27   ar
    32     7     2   ar
    33    13     8   ar
    34    23    26    1
    35    20    21    1
@<TRIPOS>MOLECULE
*****
 33 35 0 0 0
SMALL
GASTEIGER

@<TRIPOS>ATOM
      1 C          63.6581   89.6300   13.0332 C.3     1  UNL1        0.1169
      2 C          62.5095   89.6797   12.0698 C.ar    1  UNL1       -0.0003
      3 C          61.1369   90.0380   12.5570 C.ar    1  UNL1       -0.0024
      4 C          59.9883   90.0878   11.5935 C.ar    1  UNL1       -0.0003
      5 C          60.2124   89.7791   10.1428 C.ar    1  UNL1       -0.0000
      6 C          61.5851   89.4208    9.6556 C.ar    1  UNL1       -0.0003
      7 C          62.7336   89.3711   10.6191 C.ar    1  UNL1       -0.0024
      8 C          64.5936   90.7971   13.1458 C.ar    1  UNL1       -0.0004
      9 C          64.6186   91.8446   12.0724 C.ar    1  UNL1       -0.0024
     10 C          65.5541   93.0117   12.1850 C.ar    1  UNL1       -0.0003
     11 C          66.4647   93.1312   13.3711 C.ar    1  UNL1        0.0038
     12 C          66.4398   92.0837   14.4444 C.ar    1  UNL1        0.0712
     13 C          65.5042   90.9167   14.3318 C.ar    1  UNL1        0.0015
     14 C          67.3504   92.2033   15.6303 C.3     1  UNL1        0.4186
     15 F          68.2610   92.3229   16.8163 F       1  UNL1       -0.1659
     16 F          68.5149   91.7958   14.7773 F       1  UNL1       -0.1659
     17 F          66.1858   92.6108   16.4834 F       1  UNL1       -0.1659
     18 O          62.6323   89.5723   15.8519 O.2     1  UNL1       -0.2732
     19 C          63.3582   88.3844   15.2935 C.2     1  UNL1        0.2430
     20 N          63.8711   88.4132   13.8842 N.am    1  UNL1       -0.2972
     21 H          64.3475   87.6335   13.5177 H       1  UNL1        0.1500
     22 C          63.5713   87.1676   16.1443 C.3     1  UNL1        0.1759
     23 N          63.1204   85.8227   15.6562 N.am    1  UNL1       -0.2931
     24 C          64.0242   84.9982   14.7883 C.2     1  UNL1        0.2462
     25 O          65.3788   85.5184   14.4085 O.2     1  UNL1       -0.2701
     26 H          62.2313   85.4813   15.9055 H       1  UNL1        0.1502
     27 C          63.5734   83.6533   14.3002 C.ar    1  UNL1        0.0535
     28 C          62.3327   83.0277   14.8652 C.ar    1  UNL1        0.0068
     29 C          61.8819   81.6829   14.3771 C.ar    1  UNL1        0.0298
     30 C          62.6718   80.9638   13.3240 C.ar    1  UNL1        0.1401
     31 F          62.2209   79.6189   12.8359 F       1  UNL1       -0.2042
     32 C          63.9125   81.5894   12.7591 C.ar    1  UNL1        0.0298
     33 C          64.3633   82.9342   13.2472 C.ar    1  UNL1        0.0068
@<TRIPOS>BOND
     1    18    19    2
     2    19    22    1
     3    22    23    1
     4    23    24   am
     5    24    25    2
     6    24    27    1
     7    27    28   ar
     8    28    29   ar
     9    29    30   ar
    10    30    31    1
    11    30    32   ar
    12    32    33   ar
    13    19    20   am
    14    20     1    1
    15     1     2    1
    16     2     3   ar
    17     3     4   ar
    18     4     5   ar
    19     5     6   ar
    20     6     7   ar
    21     1     8    1
    22     8     9   ar
    23     9    10   ar
    24    10    11   ar
    25    11    12   ar
    26    12    14    1
    27    14    15    1
    28    14    16    1
    29    14    17    1
    30    12    13   ar
    31    33    27   ar
    32     7     2   ar
    33    13     8   ar
    34    23    26    1
    35    20    21    1
@<TRIPOS>MOLECULE
*****
 33 35 0 0 0
SMALL
GASTEIGER

@<TRIPOS>ATOM
      1 C          63.7374   89.6021   13.0324 C.3     1  UNL1        0.1169
      2 C          62.5224   89.7110   12.1595 C.ar    1  UNL1       -0.0003
      3 C          61.1667   89.8797   12.7788 C.ar    1  UNL1       -0.0024
      4 C          59.9517   89.9887   11.9060 C.ar    1  UNL1       -0.0003
      5 C          60.0924   89.9290   10.4138 C.ar    1  UNL1       -0.0000
      6 C          61.4482   89.7603    9.7945 C.ar    1  UNL1       -0.0003
      7 C          62.6631   89.6513   10.6673 C.ar    1  UNL1       -0.0024
      8 C          64.5960   90.8075   13.2766 C.ar    1  UNL1       -0.0004
      9 C          65.2037   91.0339   14.6292 C.ar    1  UNL1       -0.0024
     10 C          66.0624   92.2394   14.8734 C.ar    1  UNL1       -0.0003
     11 C          66.3133   93.2184   13.7650 C.ar    1  UNL1        0.0038
     12 C          65.7056   92.9920   12.4124 C.ar    1  UNL1        0.0712
     13 C          64.8470   91.7865   12.1682 C.ar    1  UNL1        0.0015
     14 C          65.9566   93.9710   11.3041 C.3     1  UNL1        0.4186
     15 F          66.2075   94.9501   10.1956 F       1  UNL1       -0.1659
     16 F          66.0870   95.0762   12.3098 F       1  UNL1       -0.1659
     17 F          65.8261   92.8659   10.2983 F       1  UNL1       -0.1659
     18 O          62.9087   89.0159   15.8555 O.2     1  UNL1       -0.2732
     19 C          63.6794   87.9945   15.0726 C.2     1  UNL1        0.2430
     20 N          64.0937   88.2876   13.6611 N.am    1  UNL1       -0.2972
     21 H          64.5996   87.6172   13.1473 H       1  UNL1        0.1500
     22 C          64.0358   86.6801   15.7013 C.3     1  UNL1        0.1759
     23 N          64.0203   85.4263   14.8780 N.am    1  UNL1       -0.2931
     24 C          62.7928   84.5649   14.8466 C.2     1  UNL1        0.2462
     25 O          61.5806   84.9572   15.6383 O.2     1  UNL1       -0.2701
     26 H          64.8159   85.1687   14.3584 H       1  UNL1        0.1502
     27 C          62.7773   83.3110   14.0233 C.ar    1  UNL1        0.0535
     28 C          62.0006   82.1161   14.4912 C.ar    1  UNL1        0.0068
     29 C          61.9852   80.8623   13.6680 C.ar    1  UNL1        0.0298
     30 C          62.7464   80.8034   12.3768 C.ar    1  UNL1        0.1401
     31 F          62.7309   79.5496   11.5536 F       1  UNL1       -0.2042
     32 C          63.5230   81.9983   11.9089 C.ar    1  UNL1        0.0298
     33 C          63.5385   83.2521   12.7321 C.ar    1  UNL1        0.0068
@<TRIPOS>BOND
     1    18    19    2
     2    19    22    1
     3    22    23    1
     4    23    24   am
     5    24    25    2
     6    24    27    1
     7    27    28   ar
     8    28    29   ar
     9    29    30   ar
    10    30    31    1
    11    30    32   ar
    12    32    33   ar
    13    19    20   am
    14    20     1    1
    15     1     2    1
    16     2     3   ar
    17     3     4   ar
    18     4     5   ar
    19     5     6   ar
    20     6     7   ar
    21     1     8    1
    22     8     9   ar
    23     9    10   ar
    24    10    11   ar
    25    11    12   ar
    26    12    14    1
    27    14    15    1
    28    14    16    1
    29    14    17    1
    30    12    13   ar
    31    33    27   ar
    32     7     2   ar
    33    13     8   ar
    34    23    26    1
    35    20    21    1
@<TRIPOS>MOLECULE
*****
 33 35 0 0 0
SMALL
GASTEIGER

@<TRIPOS>ATOM
      1 C          62.2503   87.0420   10.7450 C.3     1  UNL1        0.1169
      2 C          61.3168   86.8074    9.5946 C.ar    1  UNL1       -0.0003
      3 C          61.7432   85.9400    8.4476 C.ar    1  UNL1       -0.0024
      4 C          60.8097   85.7054    7.2971 C.ar    1  UNL1       -0.0003
      5 C          59.4497   86.3382    7.2936 C.ar    1  UNL1       -0.0000
      6 C          59.0233   87.2057    8.4407 C.ar    1  UNL1       -0.0003
      7 C          59.9568   87.4403    9.5911 C.ar    1  UNL1       -0.0024
      8 C          62.6311   85.9046   11.6457 C.ar    1  UNL1       -0.0004
      9 C          62.5823   84.4949   11.1353 C.ar    1  UNL1       -0.0024
     10 C          62.9631   83.3575   12.0361 C.ar    1  UNL1       -0.0003
     11 C          63.3929   83.6299   13.4472 C.ar    1  UNL1        0.0038
     12 C          63.4418   85.0395   13.9575 C.ar    1  UNL1        0.0712
     13 C          63.0609   86.1769   13.0568 C.ar    1  UNL1        0.0015
     14 C          63.8715   85.3118   15.3686 C.3     1  UNL1        0.4186
     15 F          64.3012   85.5841   16.7797 F       1  UNL1       -0.1659
     16 F          65.1592   85.8926   14.8643 F       1  UNL1       -0.1659
     17 F          62.5838   84.7310   15.8728 F       1  UNL1       -0.1659
     18 O          60.6514   89.0415   12.3087 O.2     1  UNL1       -0.2732
     19 C          62.0035   89.4137   11.7766 C.2     1  UNL1        0.2430
     20 N          62.8030   88.4139   10.9947 N.am    1  UNL1       -0.2972
     21 H          63.6904   88.6582   10.6454 H       1  UNL1        0.1500
     22 C          62.5562   90.7856   12.0262 C.3     1  UNL1        0.1759
     23 N          63.6555   90.9804   13.0281 N.am    1  UNL1       -0.2931
     24 C          64.8501   91.8170   12.6776 C.2     1  UNL1        0.2462
     25 O          64.9456   92.4588   11.3252 O.2     1  UNL1       -0.2701
     26 H          63.5929   90.5592   13.9158 H       1  UNL1        0.1502
     27 C          65.9494   92.0119   13.6795 C.ar    1  UNL1        0.0535
     28 C          67.3829   91.9285   13.2459 C.ar    1  UNL1        0.0068
     29 C          68.4820   92.1234   14.2478 C.ar    1  UNL1        0.0298
     30 C          68.1477   92.4016   15.6833 C.ar    1  UNL1        0.1401
     31 F          69.2469   92.5964   16.6852 F       1  UNL1       -0.2042
     32 C          66.7142   92.4849   16.1170 C.ar    1  UNL1        0.0298
     33 C          65.6150   92.2901   15.1151 C.ar    1  UNL1        0.0068
@<TRIPOS>BOND
     1    18    19    2
     2    19    22    1
     3    22    23    1
     4    23    24   am
     5    24    25    2
     6    24    27    1
     7    27    28   ar
     8    28    29   ar
     9    29    30   ar
    10    30    31    1
    11    30    32   ar
    12    32    33   ar
    13    19    20   am
    14    20     1    1
    15     1     2    1
    16     2     3   ar
    17     3     4   ar
    18     4     5   ar
    19     5     6   ar
    20     6     7   ar
    21     1     8    1
    22     8     9   ar
    23     9    10   ar
    24    10    11   ar
    25    11    12   ar
    26    12    14    1
    27    14    15    1
    28    14    16    1
    29    14    17    1
    30    12    13   ar
    31    33    27   ar
    32     7     2   ar
    33    13     8   ar
    34    23    26    1
    35    20    21    1
@<TRIPOS>MOLECULE
*****
 33 35 0 0 0
SMALL
GASTEIGER

@<TRIPOS>ATOM
      1 C          63.7929   88.8432   13.4920 C.3     1  UNL1        0.1169
      2 C          64.2463   89.9461   14.4019 C.ar    1  UNL1       -0.0003
      3 C          65.4506   90.7658   14.0445 C.ar    1  UNL1       -0.0024
      4 C          65.9040   91.8688   14.9545 C.ar    1  UNL1       -0.0003
      5 C          65.1532   92.1519   16.2218 C.ar    1  UNL1       -0.0000
      6 C          63.9489   91.3321   16.5791 C.ar    1  UNL1       -0.0003
      7 C          63.4955   90.2292   15.6692 C.ar    1  UNL1       -0.0024
      8 C          63.9022   87.4138   13.9336 C.ar    1  UNL1       -0.0004
      9 C          64.5388   87.0824   15.2508 C.ar    1  UNL1       -0.0024
     10 C          64.6481   85.6531   15.6925 C.ar    1  UNL1       -0.0003
     11 C          64.1208   84.5552   14.8169 C.ar    1  UNL1        0.0038
     12 C          63.4842   84.8866   13.4998 C.ar    1  UNL1        0.0712
     13 C          63.3749   86.3159   13.0581 C.ar    1  UNL1        0.0015
     14 C          62.9570   83.7887   12.6243 C.3     1  UNL1        0.4186
     15 F          62.4297   82.6907   11.7487 F       1  UNL1       -0.1659
     16 F          62.8395   82.8913   13.8204 F       1  UNL1       -0.1659
     17 F          63.0745   84.6861   11.4281 F       1  UNL1       -0.1659
     18 O          60.9658   89.8144   13.2388 O.2     1  UNL1       -0.2732
     19 C          61.8166   89.6552   12.0138 C.2     1  UNL1        0.2430
     20 N          63.2302   89.1696   12.1403 N.am    1  UNL1       -0.2972
     21 H          63.7886   89.0651   11.3363 H       1  UNL1        0.1500
     22 C          61.2540   89.9816   10.6622 C.3     1  UNL1        0.1759
     23 N          61.3766   88.9936    9.5402 N.am    1  UNL1       -0.2931
     24 C          61.2014   87.5283    9.8086 C.2     1  UNL1        0.2462
     25 O          60.9035   87.0508   11.1990 O.2     1  UNL1       -0.2701
     26 H          61.5722   89.3069    8.6276 H       1  UNL1        0.1502
     27 C          61.3241   86.5403    8.6865 C.ar    1  UNL1        0.0535
     28 C          60.1367   86.2359    7.8220 C.ar    1  UNL1        0.0068
     29 C          60.2594   85.2480    6.7001 C.ar    1  UNL1        0.0298
     30 C          61.5696   84.5644    6.4426 C.ar    1  UNL1        0.1401
     31 F          61.6923   83.5764    5.3206 F       1  UNL1       -0.2042
     32 C          62.7570   84.8687    7.3071 C.ar    1  UNL1        0.0298
     33 C          62.6342   85.8567    8.4291 C.ar    1  UNL1        0.0068
@<TRIPOS>BOND
     1    18    19    2
     2    19    22    1
     3    22    23    1
     4    23    24   am
     5    24    25    2
     6    24    27    1
     7    27    28   ar
     8    28    29   ar
     9    29    30   ar
    10    30    31    1
    11    30    32   ar
    12    32    33   ar
    13    19    20   am
    14    20     1    1
    15     1     2    1
    16     2     3   ar
    17     3     4   ar
    18     4     5   ar
    19     5     6   ar
    20     6     7   ar
    21     1     8    1
    22     8     9   ar
    23     9    10   ar
    24    10    11   ar
    25    11    12   ar
    26    12    14    1
    27    14    15    1
    28    14    16    1
    29    14    17    1
    30    12    13   ar
    31    33    27   ar
    32     7     2   ar
    33    13     8   ar
    34    23    26    1
    35    20    21    1
