@<TRIPOS>MOLECULE
*****
 27 30 0 0 0
SMALL
GASTEIGER

@<TRIPOS>ATOM
      1 C          64.1415   90.6678   13.3972 C.ar    1  UNL1        0.1384
      2 C          64.7373   89.9251   14.5562 C.ar    1  UNL1        0.0381
      3 C          64.5857   88.4357   14.6504 C.ar    1  UNL1        0.0172
      4 C          63.8382   87.6891   13.5855 C.ar    1  UNL1        0.0430
      5 C          63.2424   88.4319   12.4265 C.ar    1  UNL1        0.0207
      6 C          63.3940   89.9212   12.3324 C.ar    1  UNL1        0.0362
      7 C          62.4949   87.6853   11.3616 C.3     1  UNL1        0.1402
      8 O          61.8991   88.4281   10.2026 O.3     1  UNL1       -0.3518
      9 C          61.1516   87.6815    9.1378 C.3     1  UNL1        0.1425
     10 C          61.0000   86.1921    9.2320 C.3     1  UNL1        0.0322
     11 C          61.5958   85.4494   10.3910 C.3     1  UNL1        0.0070
     12 C          62.3432   86.1960   11.4558 C.3     1  UNL1        0.0494
     13 C          62.9390   85.4532   12.6149 C.3     1  UNL1        0.0717
     14 N          63.6865   86.1998   13.6797 N.pl3   1  UNL1       -0.3341
     15 H          64.0775   85.7123   14.4404 H       1  UNL1        0.1468
     16 C          62.7874   83.9639   12.7091 C.3     1  UNL1        0.0230
     17 C          63.1966   83.0940   11.5575 C.3     1  UNL1        0.0338
     18 C          63.0449   81.6047   11.6517 C.3     1  UNL1        0.1422
     19 O          62.4841   80.9852   12.8974 O.3     1  UNL1       -0.3538
     20 C          62.0749   81.8550   14.0489 C.3     1  UNL1        0.1422
     21 C          62.2265   83.3444   13.9547 C.3     1  UNL1        0.0338
     22 O          64.2932   92.1571   13.3030 O.3     1  UNL1       -0.4755
     23 C          65.5621   92.7493   12.7652 C.3     1  UNL1        0.2054
     24 C          66.4867   93.4977   13.6790 C.3     1  UNL1        0.0473
     25 C          66.7566   92.7851   16.1628 C.3     1  UNL1        0.0001
     26 C          67.2448   92.7631   14.7447 C.3     1  UNL1        0.0037
     27 C          68.4911   92.0066   14.3922 C.3     1  UNL1        0.0001
@<TRIPOS>BOND
     1    25    26    1
     2    26    27    1
     3    26    24    1
     4    24    23    1
     5    23    22    1
     6    22     1    1
     7     1     2   ar
     8     2     3   ar
     9     3     4   ar
    10     4     5   ar
    11     5     6   ar
    12     5     7    1
    13     7     8    1
    14     8     9    1
    15     9    10    1
    16    10    11    1
    17    12    11    1
    18    12    13    1
    19    13    16    1
    20    16    17    1
    21    17    18    1
    22    18    19    1
    23    19    20    1
    24    20    21    1
    25    13    14    1
    26     6     1   ar
    27    12     7    1
    28    21    16    1
    29    14     4    1
    30    14    15    1
@<TRIPOS>MOLECULE
*****
 27 30 0 0 0
SMALL
GASTEIGER

@<TRIPOS>ATOM
      1 C          61.9693   88.8259   11.4098 C.ar    1  UNL1        0.1384
      2 C          61.7150   89.4071   10.0505 C.ar    1  UNL1        0.0381
      3 C          62.4714   90.6219    9.6008 C.ar    1  UNL1        0.0172
      4 C          63.4822   91.2553   10.5104 C.ar    1  UNL1        0.0430
      5 C          63.7364   90.6740   11.8696 C.ar    1  UNL1        0.0207
      6 C          62.9800   89.4593   12.3193 C.ar    1  UNL1        0.0362
      7 C          64.7472   91.3075   12.7791 C.3     1  UNL1        0.1402
      8 O          65.0014   90.7262   14.1383 O.3     1  UNL1       -0.3518
      9 C          66.0121   91.3597   15.0478 C.3     1  UNL1        0.1425
     10 C          66.7685   92.5744   14.5981 C.3     1  UNL1        0.0322
     11 C          66.5143   93.1557   13.2389 C.3     1  UNL1        0.0070
     12 C          65.5036   92.5222   12.3294 C.3     1  UNL1        0.0494
     13 C          65.2493   93.1035   10.9702 C.3     1  UNL1        0.0717
     14 N          64.2386   92.4700   10.0607 N.pl3   1  UNL1       -0.3341
     15 H          64.0717   92.8515    9.1686 H       1  UNL1        0.1468
     16 C          66.0057   94.3182   10.5204 C.3     1  UNL1        0.0230
     17 C          65.7663   95.6404   11.1873 C.3     1  UNL1        0.0338
     18 C          66.5227   96.8551   10.7376 C.3     1  UNL1        0.1422
     19 O          67.5186   96.7477    9.6210 O.3     1  UNL1       -0.3538
     20 C          67.7580   95.4256    8.9542 C.3     1  UNL1        0.1422
     21 C          67.0016   94.2108    9.4039 C.3     1  UNL1        0.0338
     22 O          61.2128   87.6111   11.8595 O.3     1  UNL1       -0.4755
     23 C          61.2150   86.3711   11.0154 C.3     1  UNL1        0.2054
     24 C          62.3333   85.3795   11.1421 C.3     1  UNL1        0.0473
     25 C          63.7982   83.5656    9.9959 C.3     1  UNL1        0.0001
     26 C          62.9862   84.8240    9.9112 C.3     1  UNL1        0.0037
     27 C          62.8270   85.5268    8.5957 C.3     1  UNL1        0.0001
@<TRIPOS>BOND
     1    25    26    1
     2    26    27    1
     3    26    24    1
     4    24    23    1
     5    23    22    1
     6    22     1    1
     7     1     2   ar
     8     2     3   ar
     9     3     4   ar
    10     4     5   ar
    11     5     6   ar
    12     5     7    1
    13     7     8    1
    14     8     9    1
    15     9    10    1
    16    10    11    1
    17    12    11    1
    18    12    13    1
    19    13    16    1
    20    16    17    1
    21    17    18    1
    22    18    19    1
    23    19    20    1
    24    20    21    1
    25    13    14    1
    26     6     1   ar
    27    12     7    1
    28    21    16    1
    29    14     4    1
    30    14    15    1
@<TRIPOS>MOLECULE
*****
 27 30 0 0 0
SMALL
GASTEIGER

@<TRIPOS>ATOM
      1 C          64.2251   90.8522   13.2375 C.ar    1  UNL1        0.1384
      2 C          64.8218   90.1525   14.4226 C.ar    1  UNL1        0.0381
      3 C          64.6479   88.6715   14.5851 C.ar    1  UNL1        0.0172
      4 C          63.8772   87.8902   13.5625 C.ar    1  UNL1        0.0430
      5 C          63.2806   88.5899   12.3774 C.ar    1  UNL1        0.0207
      6 C          63.4545   90.0709   12.2149 C.ar    1  UNL1        0.0362
      7 C          62.5099   87.8086   11.3548 C.3     1  UNL1        0.1402
      8 O          61.9133   88.5083   10.1697 O.3     1  UNL1       -0.3518
      9 C          61.1427   87.7270    9.1471 C.3     1  UNL1        0.1425
     10 C          60.9688   86.2460    9.3096 C.3     1  UNL1        0.0322
     11 C          61.5654   85.5463   10.4947 C.3     1  UNL1        0.0070
     12 C          62.3360   86.3276   11.5172 C.3     1  UNL1        0.0494
     13 C          62.9327   85.6279   12.7024 C.3     1  UNL1        0.0717
     14 N          63.7033   86.4092   13.7250 N.pl3   1  UNL1       -0.3341
     15 H          64.0949   85.9500   14.5028 H       1  UNL1        0.1468
     16 C          62.7587   84.1469   12.8649 C.3     1  UNL1        0.0230
     17 C          62.2483   83.5894   14.1606 C.3     1  UNL1        0.0338
     18 C          62.0744   82.1084   14.3231 C.3     1  UNL1        0.1422
     19 O          62.4108   81.1849   13.1899 O.3     1  UNL1       -0.3538
     20 C          62.9212   81.7425   11.8943 C.3     1  UNL1        0.1422
     21 C          63.0951   83.2235   11.7318 C.3     1  UNL1        0.0338
     22 O          64.3991   92.3332   13.0750 O.3     1  UNL1       -0.4755
     23 C          65.6007   92.8729   12.3575 C.3     1  UNL1        0.2054
     24 C          65.6962   92.7603   10.8648 C.3     1  UNL1        0.0473
     25 C          67.1742   94.4631    9.5740 C.3     1  UNL1        0.0001
     26 C          66.9804   93.0993   10.1677 C.3     1  UNL1        0.0037
     27 C          68.0707   92.0744   10.0642 C.3     1  UNL1        0.0001
@<TRIPOS>BOND
     1    25    26    1
     2    26    27    1
     3    26    24    1
     4    24    23    1
     5    23    22    1
     6    22     1    1
     7     1     2   ar
     8     2     3   ar
     9     3     4   ar
    10     4     5   ar
    11     5     6   ar
    12     5     7    1
    13     7     8    1
    14     8     9    1
    15     9    10    1
    16    10    11    1
    17    12    11    1
    18    12    13    1
    19    13    16    1
    20    16    17    1
    21    17    18    1
    22    18    19    1
    23    19    20    1
    24    20    21    1
    25    13    14    1
    26     6     1   ar
    27    12     7    1
    28    21    16    1
    29    14     4    1
    30    14    15    1
@<TRIPOS>MOLECULE
*****
 27 30 0 0 0
SMALL
GASTEIGER

@<TRIPOS>ATOM
      1 C          60.8782   88.5124    9.4909 C.ar    1  UNL1        0.1384
      2 C          60.9129   90.0091    9.3963 C.ar    1  UNL1        0.0381
      3 C          61.6967   90.8058   10.3968 C.ar    1  UNL1        0.0172
      4 C          62.4456   90.1059   11.4919 C.ar    1  UNL1        0.0430
      5 C          62.4109   88.6093   11.5865 C.ar    1  UNL1        0.0207
      6 C          61.6271   87.8126   10.5860 C.ar    1  UNL1        0.0362
      7 C          63.1598   87.9093   12.6816 C.3     1  UNL1        0.1402
      8 O          63.1251   86.4128   12.7761 O.3     1  UNL1       -0.3518
      9 C          63.8740   85.7129   13.8712 C.3     1  UNL1        0.1425
     10 C          64.6577   86.5096   14.8717 C.3     1  UNL1        0.0322
     11 C          64.6925   88.0062   14.7771 C.3     1  UNL1        0.0070
     12 C          63.9436   88.7061   13.6821 C.3     1  UNL1        0.0494
     13 C          63.9783   90.2027   13.5875 C.3     1  UNL1        0.0717
     14 N          63.2294   90.9026   12.4924 N.pl3   1  UNL1       -0.3341
     15 H          63.2522   91.8849   12.4304 H       1  UNL1        0.1468
     16 C          64.7620   90.9994   14.5880 C.3     1  UNL1        0.0230
     17 C          66.1918   91.3567   14.3080 C.3     1  UNL1        0.0338
     18 C          66.9755   92.1534   15.3085 C.3     1  UNL1        0.1422
     19 O          66.3295   92.5929   16.5890 O.3     1  UNL1       -0.3538
     20 C          64.8998   92.2356   16.8690 C.3     1  UNL1        0.1422
     21 C          64.1161   91.4389   15.8684 C.3     1  UNL1        0.0338
     22 O          60.0944   87.7157    8.4904 O.3     1  UNL1       -0.4755
     23 C          60.1722   86.2177    8.4979 C.3     1  UNL1        0.2054
     24 C          60.5400   85.4795    7.2450 C.3     1  UNL1        0.0473
     25 C          62.3259   84.3054    5.7680 C.3     1  UNL1        0.0001
     26 C          61.9488   85.0080    7.0384 C.3     1  UNL1        0.0037
     27 C          62.9806   85.2391    8.1023 C.3     1  UNL1        0.0001
@<TRIPOS>BOND
     1    25    26    1
     2    26    27    1
     3    26    24    1
     4    24    23    1
     5    23    22    1
     6    22     1    1
     7     1     2   ar
     8     2     3   ar
     9     3     4   ar
    10     4     5   ar
    11     5     6   ar
    12     5     7    1
    13     7     8    1
    14     8     9    1
    15     9    10    1
    16    10    11    1
    17    12    11    1
    18    12    13    1
    19    13    16    1
    20    16    17    1
    21    17    18    1
    22    18    19    1
    23    19    20    1
    24    20    21    1
    25    13    14    1
    26     6     1   ar
    27    12     7    1
    28    21    16    1
    29    14     4    1
    30    14    15    1
@<TRIPOS>MOLECULE
*****
 27 30 0 0 0
SMALL
GASTEIGER

@<TRIPOS>ATOM
      1 C          64.3733   90.3440   14.2149 C.ar    1  UNL1        0.1384
      2 C          63.9538   91.2450   13.0913 C.ar    1  UNL1        0.0381
      3 C          63.3023   90.6672   11.8699 C.ar    1  UNL1        0.0172
      4 C          63.0705   89.1884   11.7721 C.ar    1  UNL1        0.0430
      5 C          63.4900   88.2875   12.8956 C.ar    1  UNL1        0.0207
      6 C          64.1414   88.8653   14.1170 C.ar    1  UNL1        0.0362
      7 C          63.2581   86.8087   12.7978 C.3     1  UNL1        0.1402
      8 O          63.6777   85.9078   13.9212 O.3     1  UNL1       -0.3518
      9 C          63.4458   84.4291   13.8234 C.3     1  UNL1        0.1425
     10 C          62.7943   83.8513   12.6020 C.3     1  UNL1        0.0322
     11 C          62.3748   84.7522   11.4785 C.3     1  UNL1        0.0070
     12 C          62.6067   86.2309   11.5764 C.3     1  UNL1        0.0494
     13 C          62.1871   87.1319   10.4528 C.3     1  UNL1        0.0717
     14 N          62.4190   88.6106   10.5507 N.pl3   1  UNL1       -0.3341
     15 H          62.1436   89.2019    9.8133 H       1  UNL1        0.1468
     16 C          61.5357   86.5541    9.2314 C.3     1  UNL1        0.0230
     17 C          60.1054   86.8808    8.9186 C.3     1  UNL1        0.0338
     18 C          59.4540   86.3030    7.6973 C.3     1  UNL1        0.1422
     19 O          60.2328   85.3985    6.7887 O.3     1  UNL1       -0.3538
     20 C          61.6629   85.0719    7.1015 C.3     1  UNL1        0.1422
     21 C          62.3144   85.6497    8.3229 C.3     1  UNL1        0.0338
     22 O          65.0248   90.9218   15.4363 O.3     1  UNL1       -0.4755
     23 C          65.4488   92.3606   15.4506 C.3     1  UNL1        0.2054
     24 C          66.7411   92.7552   16.1019 C.3     1  UNL1        0.0473
     25 C          68.1138   91.9777   14.0376 C.3     1  UNL1        0.0001
     26 C          68.0079   92.7823   15.2991 C.3     1  UNL1        0.0037
     27 C          69.1688   93.6141   15.7579 C.3     1  UNL1        0.0001
@<TRIPOS>BOND
     1    25    26    1
     2    26    27    1
     3    26    24    1
     4    24    23    1
     5    23    22    1
     6    22     1    1
     7     1     2   ar
     8     2     3   ar
     9     3     4   ar
    10     4     5   ar
    11     5     6   ar
    12     5     7    1
    13     7     8    1
    14     8     9    1
    15     9    10    1
    16    10    11    1
    17    12    11    1
    18    12    13    1
    19    13    16    1
    20    16    17    1
    21    17    18    1
    22    18    19    1
    23    19    20    1
    24    20    21    1
    25    13    14    1
    26     6     1   ar
    27    12     7    1
    28    21    16    1
    29    14     4    1
    30    14    15    1
@<TRIPOS>MOLECULE
*****
 27 30 0 0 0
SMALL
GASTEIGER

@<TRIPOS>ATOM
      1 C          62.7933   84.3501   12.2025 C.ar    1  UNL1        0.1384
      2 C          63.4642   84.1385   13.5274 C.ar    1  UNL1        0.0381
      3 C          63.9666   85.3153   14.3101 C.ar    1  UNL1        0.0172
      4 C          63.7982   86.7038   13.7679 C.ar    1  UNL1        0.0430
      5 C          63.1274   86.9154   12.4430 C.ar    1  UNL1        0.0207
      6 C          62.6250   85.7385   11.6603 C.ar    1  UNL1        0.0362
      7 C          62.9590   88.3038   11.9008 C.3     1  UNL1        0.1402
      8 O          62.2882   88.5154   10.5760 O.3     1  UNL1       -0.3518
      9 C          62.1199   89.9038   10.0339 C.3     1  UNL1        0.1425
     10 C          62.6223   91.0806   10.8166 C.3     1  UNL1        0.0322
     11 C          63.2931   90.8691   12.1414 C.3     1  UNL1        0.0070
     12 C          63.4614   89.4807   12.6835 C.3     1  UNL1        0.0494
     13 C          64.1323   89.2690   14.0084 C.3     1  UNL1        0.0717
     14 N          64.3006   87.8806   14.5506 N.pl3   1  UNL1       -0.3341
     15 H          64.7409   87.7418   15.4201 H       1  UNL1        0.1468
     16 C          64.6347   90.4459   14.7911 C.3     1  UNL1        0.0230
     17 C          63.8495   90.9582   15.9622 C.3     1  UNL1        0.0338
     18 C          64.3520   92.1350   16.7449 C.3     1  UNL1        0.1422
     19 O          65.6395   92.7995   16.3566 O.3     1  UNL1       -0.3538
     20 C          66.4246   92.2872   15.1856 C.3     1  UNL1        0.1422
     21 C          65.9222   91.1104   14.4029 C.3     1  UNL1        0.0338
     22 O          62.2909   83.1733   11.4197 O.3     1  UNL1       -0.4755
     23 C          63.1492   81.9526   11.2669 C.3     1  UNL1        0.2054
     24 C          62.7787   80.6821   11.9732 C.3     1  UNL1        0.0473
     25 C          61.0783   80.8015   13.9339 C.3     1  UNL1        0.0001
     26 C          62.4929   80.6985   13.4456 C.3     1  UNL1        0.0037
     27 C          63.6216   80.6118   14.4297 C.3     1  UNL1        0.0001
@<TRIPOS>BOND
     1    25    26    1
     2    26    27    1
     3    26    24    1
     4    24    23    1
     5    23    22    1
     6    22     1    1
     7     1     2   ar
     8     2     3   ar
     9     3     4   ar
    10     4     5   ar
    11     5     6   ar
    12     5     7    1
    13     7     8    1
    14     8     9    1
    15     9    10    1
    16    10    11    1
    17    12    11    1
    18    12    13    1
    19    13    16    1
    20    16    17    1
    21    17    18    1
    22    18    19    1
    23    19    20    1
    24    20    21    1
    25    13    14    1
    26     6     1   ar
    27    12     7    1
    28    21    16    1
    29    14     4    1
    30    14    15    1
@<TRIPOS>MOLECULE
*****
 27 30 0 0 0
SMALL
GASTEIGER

@<TRIPOS>ATOM
      1 C          60.2080   88.8184    8.3762 C.ar    1  UNL1        0.1384
      2 C          59.8168   87.4278    7.9719 C.ar    1  UNL1        0.0381
      3 C          60.2991   86.2516    8.7681 C.ar    1  UNL1        0.0172
      4 C          61.1727   86.4660    9.9686 C.ar    1  UNL1        0.0430
      5 C          61.5638   87.8565   10.3728 C.ar    1  UNL1        0.0207
      6 C          61.0815   89.0327    9.5766 C.ar    1  UNL1        0.0362
      7 C          62.4374   88.0709   11.5732 C.3     1  UNL1        0.1402
      8 O          62.8285   89.4614   11.9774 O.3     1  UNL1       -0.3518
      9 C          63.7020   89.6757   13.1778 C.3     1  UNL1        0.1425
     10 C          64.1844   88.4996   13.9740 C.3     1  UNL1        0.0322
     11 C          63.7932   87.1091   13.5698 C.3     1  UNL1        0.0070
     12 C          62.9197   86.8947   12.3694 C.3     1  UNL1        0.0494
     13 C          62.5285   85.5042   11.9652 C.3     1  UNL1        0.0717
     14 N          61.6550   85.2898   10.7648 N.pl3   1  UNL1       -0.3341
     15 H          61.3983   84.3772   10.4995 H       1  UNL1        0.1468
     16 C          63.0109   84.3280   12.7614 C.3     1  UNL1        0.0230
     17 C          63.9448   83.3330   12.1386 C.3     1  UNL1        0.0338
     18 C          64.4272   82.1568   12.9348 C.3     1  UNL1        0.1422
     19 O          63.9756   81.9756   14.3538 O.3     1  UNL1       -0.3538
     20 C          63.0416   82.9706   14.9764 C.3     1  UNL1        0.1422
     21 C          62.5593   84.1468   14.1802 C.3     1  UNL1        0.0338
     22 O          59.7256   89.9946    7.5800 O.3     1  UNL1       -0.4755
     23 C          59.3707   89.8256    6.1323 C.3     1  UNL1        0.2054
     24 C          59.9178   90.7771    5.1100 C.3     1  UNL1        0.0473
     25 C          59.5780   92.7968    3.5114 C.3     1  UNL1        0.0001
     26 C          59.0132   91.7826    4.4614 C.3     1  UNL1        0.0037
     27 C          57.5439   91.7738    4.7626 C.3     1  UNL1        0.0001
@<TRIPOS>BOND
     1    25    26    1
     2    26    27    1
     3    26    24    1
     4    24    23    1
     5    23    22    1
     6    22     1    1
     7     1     2   ar
     8     2     3   ar
     9     3     4   ar
    10     4     5   ar
    11     5     6   ar
    12     5     7    1
    13     7     8    1
    14     8     9    1
    15     9    10    1
    16    10    11    1
    17    12    11    1
    18    12    13    1
    19    13    16    1
    20    16    17    1
    21    17    18    1
    22    18    19    1
    23    19    20    1
    24    20    21    1
    25    13    14    1
    26     6     1   ar
    27    12     7    1
    28    21    16    1
    29    14     4    1
    30    14    15    1
@<TRIPOS>MOLECULE
*****
 27 30 0 0 0
SMALL
GASTEIGER

@<TRIPOS>ATOM
      1 C          62.1767   89.3245   10.6199 C.ar    1  UNL1        0.1384
      2 C          61.5519   88.5407    9.5039 C.ar    1  UNL1        0.0381
      3 C          61.5256   87.0421    9.5630 C.ar    1  UNL1        0.0172
      4 C          62.1242   86.3273   10.7381 C.ar    1  UNL1        0.0430
      5 C          62.7489   87.1111   11.8540 C.ar    1  UNL1        0.0207
      6 C          62.7752   88.6097   11.7949 C.ar    1  UNL1        0.0362
      7 C          63.3475   86.3962   13.0292 C.3     1  UNL1        0.1402
      8 O          63.9723   87.1800   14.1451 O.3     1  UNL1       -0.3518
      9 C          64.5708   86.4652   15.3201 C.3     1  UNL1        0.1425
     10 C          64.5445   84.9666   15.3793 C.3     1  UNL1        0.0322
     11 C          63.9197   84.1828   14.2633 C.3     1  UNL1        0.0070
     12 C          63.3212   84.8976   13.0883 C.3     1  UNL1        0.0494
     13 C          62.6964   84.1139   11.9723 C.3     1  UNL1        0.0717
     14 N          62.0979   84.8287   10.7973 N.pl3   1  UNL1       -0.3341
     15 H          61.6878   84.3143   10.0648 H       1  UNL1        0.1468
     16 C          62.6701   82.6152   12.0314 C.3     1  UNL1        0.0230
     17 C          62.1399   81.9220   13.2515 C.3     1  UNL1        0.0338
     18 C          62.1136   80.4234   13.3106 C.3     1  UNL1        0.1422
     19 O          62.6175   79.6180   12.1497 O.3     1  UNL1       -0.3538
     20 C          63.1477   80.3113   10.9298 C.3     1  UNL1        0.1422
     21 C          63.1740   81.8099   10.8706 C.3     1  UNL1        0.0338
     22 O          62.2030   90.8231   10.5607 O.3     1  UNL1       -0.4755
     23 C          63.5125   91.5465   10.4498 C.3     1  UNL1        0.2054
     24 C          64.3826   91.7122   11.6603 C.3     1  UNL1        0.0473
     25 C          66.5984   92.5382   12.7364 C.3     1  UNL1        0.0001
     26 C          65.6706   92.4743   11.5595 C.3     1  UNL1        0.0037
     27 C          66.0309   93.1723   10.2816 C.3     1  UNL1        0.0001
@<TRIPOS>BOND
     1    25    26    1
     2    26    27    1
     3    26    24    1
     4    24    23    1
     5    23    22    1
     6    22     1    1
     7     1     2   ar
     8     2     3   ar
     9     3     4   ar
    10     4     5   ar
    11     5     6   ar
    12     5     7    1
    13     7     8    1
    14     8     9    1
    15     9    10    1
    16    10    11    1
    17    12    11    1
    18    12    13    1
    19    13    16    1
    20    16    17    1
    21    17    18    1
    22    18    19    1
    23    19    20    1
    24    20    21    1
    25    13    14    1
    26     6     1   ar
    27    12     7    1
    28    21    16    1
    29    14     4    1
    30    14    15    1
@<TRIPOS>MOLECULE
*****
 27 30 0 0 0
SMALL
GASTEIGER

@<TRIPOS>ATOM
      1 C          60.8402   88.2836    9.4512 C.ar    1  UNL1        0.1384
      2 C          60.8520   89.7792    9.3366 C.ar    1  UNL1        0.0381
      3 C          61.6186   90.6014   10.3297 C.ar    1  UNL1        0.0172
      4 C          62.3733   89.9280   11.4374 C.ar    1  UNL1        0.0430
      5 C          62.3615   88.4325   11.5520 C.ar    1  UNL1        0.0207
      6 C          61.5949   87.6103   10.5589 C.ar    1  UNL1        0.0362
      7 C          63.1162   87.7591   12.6597 C.3     1  UNL1        0.1402
      8 O          63.1044   86.2636   12.7743 O.3     1  UNL1       -0.3518
      9 C          63.8591   85.5903   13.8820 C.3     1  UNL1        0.1425
     10 C          64.6257   86.4125   14.8751 C.3     1  UNL1        0.0322
     11 C          64.6375   87.9081   14.7605 C.3     1  UNL1        0.0070
     12 C          63.8828   88.5814   13.6528 C.3     1  UNL1        0.0494
     13 C          63.8947   90.0770   13.5382 C.3     1  UNL1        0.0717
     14 N          63.1399   90.7503   12.4305 N.pl3   1  UNL1       -0.3341
     15 H          63.1477   91.7319   12.3553 H       1  UNL1        0.1468
     16 C          64.6612   90.8992   14.5313 C.3     1  UNL1        0.0230
     17 C          64.0156   91.3118   15.8209 C.3     1  UNL1        0.0338
     18 C          64.7822   92.1341   16.8140 C.3     1  UNL1        0.1422
     19 O          66.1944   92.5437   16.5175 O.3     1  UNL1       -0.3538
     20 C          66.8400   92.1311   15.2280 C.3     1  UNL1        0.1422
     21 C          66.0734   91.3088   14.2349 C.3     1  UNL1        0.0338
     22 O          60.0736   87.4613    8.4581 O.3     1  UNL1       -0.4755
     23 C          59.7397   88.0312    7.1113 C.3     1  UNL1        0.2054
     24 C          58.7556   89.1574    6.9964 C.3     1  UNL1        0.0473
     25 C          57.7418   90.9288    5.3889 C.3     1  UNL1        0.0001
     26 C          58.9354   90.2055    5.9386 C.3     1  UNL1        0.0037
     27 C          60.3088   90.5304    5.4304 C.3     1  UNL1        0.0001
@<TRIPOS>BOND
     1    25    26    1
     2    26    27    1
     3    26    24    1
     4    24    23    1
     5    23    22    1
     6    22     1    1
     7     1     2   ar
     8     2     3   ar
     9     3     4   ar
    10     4     5   ar
    11     5     6   ar
    12     5     7    1
    13     7     8    1
    14     8     9    1
    15     9    10    1
    16    10    11    1
    17    12    11    1
    18    12    13    1
    19    13    16    1
    20    16    17    1
    21    17    18    1
    22    18    19    1
    23    19    20    1
    24    20    21    1
    25    13    14    1
    26     6     1   ar
    27    12     7    1
    28    21    16    1
    29    14     4    1
    30    14    15    1
